LTspice 24.1.7 for Windows
Circuit: C:\Users\Gonzalo\Documents\asa\modddd.net
Start Time: Sun May 25 14:44:41 2025
solver = Normal
Maximum thread count: 12
tnom = 27
temp = 27
method = modified trap
Direct Newton iteration for .op point succeeded.
Total elapsed time: 4.370 seconds.

Files loaded:
C:\Users\Gonzalo\Documents\asa\modddd.net
C:\Users\Gonzalo\AppData\Local\LTspice\lib\cmp\standard.mos
C:\Users\Gonzalo\Documents\asa\IRFZ44N.sub

