LTspice 24.1.7 for Windows
Circuit: C:\Users\Gonzalo\Documents\GitHub\Circuitos II\1CTDC\CP5_buck_pwm\Driver\buck_drivers.net
Start Time: Mon Jun  2 21:57:59 2025
solver = Normal
Maximum thread count: 12
tnom = 27
temp = 27
method = modified trap
Instance "u1:x_gd_template:x_ho_stage:M_HO_PMOS": Length shorter than recommended for a level 1 MOSFET.
Instance "u1:x_gd_template:x_ho_stage:M_HO_NMOS": Length shorter than recommended for a level 1 MOSFET.
Instance "u1:x_gd_template:x_lo_stage:M_LO_PMOS": Length shorter than recommended for a level 1 MOSFET.
Instance "u1:x_gd_template:x_lo_stage:M_LO_NMOS": Length shorter than recommended for a level 1 MOSFET.
Direct Newton iteration failed to find .op point.  (Use ".option noopiter" to skip.)
Starting Gmin stepping
Gmin = 10
Gmin = 1.07374
vernier = 0.5
vernier = 0.25
vernier = 0.125
vernier = 0.0625
Gmin = 0.995033
vernier = 0.03125
vernier = 0.015625
vernier = 0.0078125
vernier = 0.00390625
Gmin = 0.999816
vernier = 0.00195312
vernier = 0.000976562
vernier = 0.000488281
Gmin = 0
Gmin stepping failed

Starting source stepping with srcstepmethod=0
Source Step = 3.0303%
Source Step = 25.7576%
Source Step = 33.3333%
Source Step = 40.9091%
Source Step = 48.4848%
Source Step = 50.0118%
Starting source stepping with srcstepmethod=1
Source Step = 3.0303%
Source Step = 33.3333%
Source Step = 50.1894%
vernier = 0.015625
Source stepping failed

Pseudo Transient failed in finding the operating point at 5.625 µs.
Trouble finding operating point....skipping operating point for Transient analysis.
Changing Tseed to 1e-07
Changing Tseed to 1e-09
Changing Tseed to 1e-06
Changing Tseed to 1e-10
Changing Tseed to 1e-05
Changing Tseed to 1e-11
Changing Tseed to 0.0001
Changing Tseed to 1e-12
Changing Tseed to 0.001
Changing Tseed to 1e-13
Changing Tseed to 0.01
Changing Tseed to 1e-14

Convergence Failure:  Time step too small; initial timepoint: trouble with node "u1:x_gd_template:x_ho_stage:e_hgate_p#branch"

Simulation Failed: Iteration limit reached

Total elapsed time: 1.297 seconds.

Files loaded:
C:\Users\Gonzalo\Documents\GitHub\Circuitos II\1CTDC\CP5_buck_pwm\Driver\buck_drivers.net
C:\Users\Gonzalo\AppData\Local\LTspice\lib\cmp\standard.dio
C:\Users\Gonzalo\AppData\Local\LTspice\lib\cmp\standard.mos
C:\Users\Gonzalo\Documents\GitHub\Circuitos II\1CTDC\CP5_buck_pwm\Driver\IR2104.lib

