LTspice 24.1.7 for Windows
Circuit: C:\Users\Gonzalo\Documents\GitHub\Circuitos II\1CTDC\CP5_buck_pwm\Buck y PWM\Promediado\promediado-20250614T142845Z-1-001\promediado\boost_average_CL_noCompensado.net
Start Time: Mon Jun 23 11:50:38 2025
solver = Normal
Maximum thread count: 12
tnom = 27
temp = 27
method = modified trap
Direct Newton iteration failed to find .op point.  (Use ".option noopiter" to skip.)
Starting Gmin stepping
Increasing initial diagonal Gmin to 100
Increasing initial diagonal Gmin to 1000
Increasing initial diagonal Gmin to 10000
Increasing initial diagonal Gmin to 100000
Increasing initial diagonal Gmin to 1e+06
Initial Gmin=1e+06 failed
Gmin stepping failed

Starting source stepping with srcstepmethod=0
Could not converge to DC with sources off!
Starting source stepping with srcstepmethod=1
Source Step = 3.0303%
vernier = 0.25
Source Step = 0.0177557%
Source Step = 0.0473485%
Source Step = 0.0769413%
Source Step = 0.106534%
Source Step = 0.136127%
vernier = 0.00146484
Source Step = 0.173118%
Source Step = 0.217507%
Source Step = 0.261896%
Source Step = 0.306286%
Source Step = 0.350675%
vernier = 0.00219727
Source Step = 0.403942%
Source Step = 0.470526%
Source Step = 0.537109%
Source Step = 0.603693%
Source Step = 0.670277%
vernier = 0.0032959
Source Step = 0.746848%
Source Step = 0.846724%
Source Step = 0.9466%
Source Step = 1.04648%
Source Step = 1.14635%
vernier = 0.00494385
Source Step = 1.25621%
Source Step = 1.40603%
Source Step = 1.55584%
Source Step = 1.70566%
Source Step = 1.85547%
vernier = 0.00741577
Source Step = 2.01277%
Source Step = 2.23749%
Source Step = 2.46221%
Source Step = 2.68693%
Source Step = 2.91165%
Source Step = 3.13637%
vernier = 0.0111237
Source Step = 3.47346%
Source Step = 3.81054%
Source Step = 4.14762%
Source Step = 4.4847%
Source Step = 4.82178%
vernier = 0.0166855
Source Step = 5.31054%
Source Step = 5.81616%
Source Step = 6.32179%
Source Step = 6.82741%
Source Step = 7.33303%
vernier = 0.0250282
Source Step = 8.0409%
Source Step = 8.09304%
Source Step = 8.14044%
Source Step = 8.18784%
Source Step = 8.23524%
Source Step = 8.28265%
Source Step = 8.33005%
vernier = 0.0023464
Source Step = 8.3893%
Source Step = 8.4604%
Source Step = 8.53151%
Source Step = 8.60261%
Source Step = 8.67371%
Source Step = 8.74482%
vernier = 0.00351959
Source Step = 8.8408%
Source Step = 8.94746%
Source Step = 9.05411%
Source Step = 9.16077%
Source Step = 9.26742%
vernier = 0.00527939
Source Step = 9.40607%
Source Step = 9.56605%
Source Step = 9.72604%
Source Step = 9.88602%
Source Step = 10.046%
vernier = 0.00791909
Source Step = 10.246%
Source Step = 10.4859%
Source Step = 10.6659%
Source Step = 10.7259%
Source Step = 10.7859%
Source Step = 10.8459%
Source Step = 10.9059%
Source Step = 10.9659%
vernier = 0.00296966
Source Step = 11.0469%
Source Step = 11.1369%
Source Step = 11.2269%
Source Step = 11.3169%
Source Step = 11.4068%
vernier = 0.00445449
Source Step = 11.5238%
Source Step = 11.6588%
Source Step = 11.7938%
Source Step = 11.9288%
Source Step = 12.0638%
vernier = 0.00668173
Source Step = 12.2325%
Source Step = 12.435%
Source Step = 12.6375%
Source Step = 12.8399%
Source Step = 13.0424%
vernier = 0.0100226
Source Step = 13.2854%
Source Step = 13.5891%
Source Step = 13.8928%
Source Step = 14.1965%
Source Step = 14.5002%
vernier = 0.0150339
Source Step = 14.8495%
Source Step = 15.3051%
Source Step = 15.7607%
Source Step = 16.2162%
Source Step = 16.6718%
vernier = 0.0225508
Source Step = 17.1729%
Source Step = 17.8563%
Source Step = 18.5396%
Source Step = 19.223%
Source Step = 19.9064%
vernier = 0.0338263
Source Step = 20.6239%
Source Step = 21.6489%
Source Step = 22.674%
Source Step = 23.699%
Source Step = 24.724%
Source Step = 25.7491%
vernier = 0.0507394
Source Step = 27.2866%
Source Step = 28.8242%
Source Step = 30.3618%
Source Step = 31.8993%
Source Step = 33.4369%
vernier = 0.0761091
Source Step = 35.6663%
Source Step = 37.9727%
Source Step = 40.279%
Source Step = 42.5853%
Source Step = 44.8917%
vernier = 0.114164
Source Step = 48.1205%
Source Step = 51.58%
Source Step = 55.0395%
Source Step = 58.4991%
Source Step = 61.9586%
vernier = 0.171245
Source Step = 66.6289%
Source Step = 71.8181%
Source Step = 77.0074%
Source Step = 82.1967%
Source Step = 87.3859%
vernier = 0.256868
Source Step = 94.1319%
Source Step = 97.2516%
Source Step = 97.282%
Source Step = 97.3124%
Source Step = 97.3428%
Source Step = 97.3732%
Source Step = 97.4036%
Source Step = 97.434%
Source Step = 97.4644%
Source Step = 97.4948%
Source Step = 97.5252%
vernier = 0.00150509
Source Step = 97.5663%
Source Step = 97.6119%
Source Step = 97.6575%
Source Step = 97.7031%
Source Step = 97.7487%
vernier = 0.00225763
Source Step = 97.808%
Source Step = 97.8764%
Source Step = 97.9448%
Source Step = 98.0132%
Source Step = 98.0817%
vernier = 0.00338645
Source Step = 98.1672%
Source Step = 98.2698%
Source Step = 98.3724%
Source Step = 98.475%
Source Step = 98.5776%
vernier = 0.00507967
Source Step = 98.7008%
Source Step = 98.8547%
Source Step = 99.0087%
Source Step = 99.1626%
Source Step = 99.3165%
vernier = 0.0076195
Source Step = 99.4935%
Source Step = 99.7244%
Source Step = 99.9553%
Source stepping succeeded in finding the operating point.

.step rload=8
.step rload=20
Total elapsed time: 0.732 seconds.

Files loaded:
C:\Users\Gonzalo\Documents\GitHub\Circuitos II\1CTDC\CP5_buck_pwm\Buck y PWM\Promediado\promediado-20250614T142845Z-1-001\promediado\boost_average_CL_noCompensado.net
C:\Users\Gonzalo\Documents\GitHub\Circuitos II\1CTDC\CP5_buck_pwm\Buck y PWM\Promediado\promediado-20250614T142845Z-1-001\promediado\average.lib
C:\Users\Gonzalo\AppData\Local\LTspice\lib\sub\LTC.lib

