LTspice 24.1.7 for Windows
Circuit: C:\Users\Gonzalo\Documents\GitHub\Circuitos II\1CTDC\CP2_Compensacion\PRUEBA.net
Start Time: Mon Apr 28 20:18:42 2025
solver = Normal
Maximum thread count: 12
tnom = 27
temp = 27
method = modified trap
Direct Newton iteration for .op point succeeded.
Total elapsed time: 0.040 seconds.

Files loaded:
C:\Users\Gonzalo\Documents\GitHub\Circuitos II\1CTDC\CP2_Compensacion\PRUEBA.net
C:\Users\Gonzalo\AppData\Local\LTspice\lib\cmp\standard.bjt

