LTspice 24.1.7 for Windows
Circuit: C:\Users\Gonzalo\Documents\GitHub\Circuitos II\1CTDC\CP2_Compensacion\regulador_lineal_compensado330n.net
Start Time: Fri May  9 20:48:01 2025
solver = Normal
Maximum thread count: 12
tnom = 27
temp = 27
method = modified trap
Direct Newton iteration failed to find .op point.  (Use ".option noopiter" to skip.)
Starting Gmin stepping
Gmin = 10
Gmin = 1.07374
Gmin = 0.115292
Gmin = 0.0123794
Gmin = 0.00132923
Gmin = 0.000142725
Gmin = 1.5325e-05
vernier = 0.5
vernier = 0.25
Gmin = 4.72629e-06
vernier = 0.125
vernier = 0.166667
Gmin = 3.58521e-06
vernier = 0.222222
vernier = 0.296296
Gmin = 2.13505e-06
vernier = 0.395061
Gmin = 9.32634e-07
vernier = 0.526748
vernier = 0.702331
Gmin = 2.48707e-07
vernier = 0.936441
vernier = 1
Gmin = 3.46653e-08
Gmin = 3.72216e-09
Gmin = 3.99664e-10
Gmin = 4.29136e-11
Gmin = 4.60781e-12
Gmin = 4.9476e-13
Gmin = 0
Gmin stepping succeeded in finding the operating point.

Total elapsed time: 0.174 seconds.

Files loaded:
C:\Users\Gonzalo\Documents\GitHub\Circuitos II\1CTDC\CP2_Compensacion\regulador_lineal_compensado330n.net
C:\Users\Gonzalo\AppData\Local\LTspice\lib\cmp\standard.bjt

vo1rl: V(Vo)=5.00428724289 at 8
vo2rl: V(Vo)=5.00428724289 at 20
reglin: ((Vo2rl-Vo1rl)/12)=0
vo1rc: V(Vo)=5.00428724289 at 200
vo2rc: V(Vo)=5.00428724289 at 10
io1rc: I(RL)=0.00500428723171 at 200
io2rc: I(RL)=0.00500428723171 at 10
regcar: (-(Vo2rc-Vo1rc)/(Io2rc-Io1rc))=0
