LTspice 24.1.7 for Windows
Circuit: C:\Users\Gonzalo\Documents\GitHub\Circuitos II\1CTDC\CP2_Compensacion\regulador_lineal_compensado.net
Start Time: Mon Apr 28 20:09:01 2025
solver = Normal
Maximum thread count: 12
tnom = 27
temp = 27
method = modified trap
Direct Newton iteration failed to find .op point.  (Use ".option noopiter" to skip.)
Starting Gmin stepping
Gmin = 10
Gmin = 1.07374
Gmin = 0.115292
Gmin = 0.0123794
Gmin = 0.00132923
vernier = 0.5
Gmin = 0.000223007
vernier = 0.666667
Gmin = 5.72562e-05
vernier = 0.888888
vernier = 1
Gmin = 7.53781e-06
Gmin = 8.09366e-07
Gmin = 8.6905e-08
Gmin = 9.33136e-09
Gmin = 1.00195e-09
Gmin = 1.07583e-10
Gmin = 1.15517e-11
Gmin = 1.24035e-12
Gmin = 1.33182e-13
Gmin = 0
Gmin stepping succeeded in finding the operating point.

Total elapsed time: 7.063 seconds.

Files loaded:
C:\Users\Gonzalo\Documents\GitHub\Circuitos II\1CTDC\CP2_Compensacion\regulador_lineal_compensado.net
C:\Users\Gonzalo\AppData\Local\LTspice\lib\cmp\standard.bjt

vo1rl: V(Vo)=5.00545551279 at 8
vo2rl: V(Vo)=5.00653781889 at 20
reglin: ((Vo2rl-Vo1rl)/12)=9.01921748477e-05
Measurement "vo1rc" FAIL'ed
vo2rc: V(Vo)=5.00583734501 at 10
Measurement "io1rc" FAIL'ed
io2rc: I(RL)=0.500690786113 at 10
Measurement "regcar" FAIL'ed
