LTspice 24.0.12 for Windows
Circuit: * C:\Users\mathe\Documents\Ing. Electronica\1C 2025\C2\IRFZ44N.asc
Start Time: Fri May 30 14:38:55 2025
solver = Normal
Maximum thread count: 8
tnom = 27
temp = 27
method = modified trap
Direct Newton iteration for .op point succeeded.
Total elapsed time: 1.691 seconds.

