LTspice 24.1.7 for Windows
Circuit: C:\Users\Gonzalo\Documents\GitHub\Circuitos II\1CTDC\CP5_buck_pwm\Buck y PWM\intento6_error.net
Start Time: Tue Jun 24 22:08:24 2025
Options: gmin=1e-11  abstol=1e-10  reltol=0.006  cshunt=1e-15
solver = Normal
Maximum thread count: 12
tnom = 27
temp = 27
method = modified trap
gmin = 1e-11
abstol = 1e-10
reltol = 0.006
Instance "u1:x_gd_template:x_ho_stage:M_HO_PMOS": Length shorter than recommended for a level 1 MOSFET.
Instance "u1:x_gd_template:x_ho_stage:M_HO_NMOS": Length shorter than recommended for a level 1 MOSFET.
Instance "u1:x_gd_template:x_lo_stage:M_LO_PMOS": Length shorter than recommended for a level 1 MOSFET.
Instance "u1:x_gd_template:x_lo_stage:M_LO_NMOS": Length shorter than recommended for a level 1 MOSFET.
Direct Newton iteration for .op point succeeded.
Warning: Simulation tolerance relaxed to achieve convergence from 1.0830347667539970e-03 to 1.0830347667540069e-03 seconds.
Warning: Simulation tolerance relaxed to achieve convergence from 1.0830347667540269e-03 to 1.0830347667540369e-03 seconds.
Warning: Simulation tolerance relaxed to achieve convergence from 1.0830347667540369e-03 to 1.0830347667540468e-03 seconds.
Warning: Simulation tolerance relaxed to achieve convergence from 1.0830347667541167e-03 to 1.0830347667541266e-03 seconds.
Warning: Simulation tolerance relaxed to achieve convergence from 1.0830347667541266e-03 to 1.0830347667541366e-03 seconds.
Warning: Simulation tolerance relaxed to achieve convergence from 1.0830347667542767e-03 to 1.0830347667542867e-03 seconds.
Warning: Simulation tolerance relaxed to achieve convergence from 1.0830347667543467e-03 to 1.0830347667543567e-03 seconds.
Warning: Simulation tolerance relaxed to achieve convergence from 1.0830347667543667e-03 to 1.0830347667543767e-03 seconds.
Warning: Simulation tolerance relaxed to achieve convergence from 1.0830347667543866e-03 to 1.0830347667543966e-03 seconds.
Warning: Simulation tolerance relaxed to achieve convergence from 1.0830347667543966e-03 to 1.0830347667544066e-03 seconds.
Warning: Simulation tolerance relaxed to achieve convergence from 1.0830347667544165e-03 to 1.0830347667544265e-03 seconds.
Warning: Simulation tolerance relaxed to achieve convergence from 1.0830347667544265e-03 to 1.0830347667544365e-03 seconds.
Warning: Simulation tolerance relaxed to achieve convergence from 1.0830347667544365e-03 to 1.0830347667544465e-03 seconds.
Warning: Simulation tolerance relaxed to achieve convergence from 1.0830347667544465e-03 to 1.0830347667544564e-03 seconds.
Warning: Simulation tolerance relaxed to achieve convergence from 1.0830347667544564e-03 to 1.0830347667544664e-03 seconds.
Warning: Simulation tolerance relaxed to achieve convergence from 1.0830347667544764e-03 to 1.0830347667544864e-03 seconds.
Warning: Simulation tolerance relaxed to achieve convergence from 1.0830347667544864e-03 to 1.0830347667544963e-03 seconds.
Warning: Simulation tolerance relaxed to achieve convergence from 1.0830347667546364e-03 to 1.0830347667546464e-03 seconds.
Warning: Simulation tolerance relaxed to achieve convergence from 1.0830347667546464e-03 to 1.0830347667546564e-03 seconds.
Warning: Simulation tolerance relaxed to achieve convergence from 1.0830347667546564e-03 to 1.0830347667546663e-03 seconds.
Warning: Simulation tolerance relaxed to achieve convergence from 3.3200605043338075e-03 to 3.3200605043338174e-03 seconds.
Warning: Simulation tolerance relaxed to achieve convergence from 3.3200605043338374e-03 to 3.3200605043338474e-03 seconds.
Warning: Simulation tolerance relaxed to achieve convergence from 3.3200605043338474e-03 to 3.3200605043338573e-03 seconds.
Warning: Simulation tolerance relaxed to achieve convergence from 3.3200605043338573e-03 to 3.3200605043338673e-03 seconds.
Warning: Simulation tolerance relaxed to achieve convergence from 3.3200605043338673e-03 to 3.3200605043338773e-03 seconds.
Warning: Simulation tolerance relaxed to achieve convergence from 3.3200605043339072e-03 to 3.3200605043339172e-03 seconds.
Warning: Simulation tolerance relaxed to achieve convergence from 3.3200605043339172e-03 to 3.3200605043339272e-03 seconds.
Warning: Simulation tolerance relaxed to achieve convergence from 3.3200605043339272e-03 to 3.3200605043339371e-03 seconds.
Warning: Simulation tolerance relaxed to achieve convergence from 3.3200605043339870e-03 to 3.3200605043339970e-03 seconds.
Warning: Simulation tolerance relaxed to achieve convergence from 3.3200605043340269e-03 to 3.3200605043340369e-03 seconds.
Warning: Simulation tolerance relaxed to achieve convergence from 3.3200605043340568e-03 to 3.3200605043340668e-03 seconds.
Warning: Simulation tolerance relaxed to achieve convergence from 3.3200605043341666e-03 to 3.3200605043341765e-03 seconds.
Warning: Simulation tolerance relaxed to achieve convergence from 3.3200605043341965e-03 to 3.3200605043342065e-03 seconds.
Warning: Simulation tolerance relaxed to achieve convergence from 3.3200605043342264e-03 to 3.3200605043342364e-03 seconds.
Warning: Simulation tolerance relaxed to achieve convergence from 3.3200605043342962e-03 to 3.3200605043343062e-03 seconds.
Warning: Simulation tolerance relaxed to achieve convergence from 3.3200605043343261e-03 to 3.3200605043343361e-03 seconds.
Warning: Simulation tolerance relaxed to achieve convergence from 3.3200605043344159e-03 to 3.3200605043344259e-03 seconds.
Warning: Simulation tolerance relaxed to achieve convergence from 3.3200605043345157e-03 to 3.3200605043345256e-03 seconds.
Warning: Simulation tolerance relaxed to achieve convergence from 3.3200605043345456e-03 to 3.3200605043345556e-03 seconds.
Warning: Simulation tolerance relaxed to achieve convergence from 3.3200605043345556e-03 to 3.3200605043345655e-03 seconds.
Warning: Simulation tolerance relaxed to achieve convergence from 3.3200605043345855e-03 to 3.3200605043345955e-03 seconds.
Warning: Simulation tolerance relaxed to achieve convergence from 3.3200605043347251e-03 to 3.3200605043347351e-03 seconds.
Warning: Simulation tolerance relaxed to achieve convergence from 3.3200605043347650e-03 to 3.3200605043347750e-03 seconds.
Warning: Simulation tolerance relaxed to achieve convergence from 3.3200605043347950e-03 to 3.3200605043348049e-03 seconds.
Warning: Simulation tolerance relaxed to achieve convergence from 3.3200605043348049e-03 to 3.3200605043348149e-03 seconds.
Warning: Simulation tolerance relaxed to achieve convergence from 3.3200605043348249e-03 to 3.3200605043348349e-03 seconds.
Warning: Simulation tolerance relaxed to achieve convergence from 3.3200605043348448e-03 to 3.3200605043348548e-03 seconds.
Warning: Simulation tolerance relaxed to achieve convergence from 3.3200605043348748e-03 to 3.3200605043348847e-03 seconds.
Warning: Simulation tolerance relaxed to achieve convergence from 3.3200605043349945e-03 to 3.3200605043350044e-03 seconds.
Warning: Simulation tolerance relaxed to achieve convergence from 3.3200605043353245e-03 to 3.3200605043353345e-03 seconds.
Warning: Simulation tolerance relaxed to achieve convergence from 3.3200605043353644e-03 to 3.3200605043353744e-03 seconds.
Warning: Simulation tolerance relaxed to achieve convergence from 3.3200605043353744e-03 to 3.3200605043353843e-03 seconds.
Warning: Simulation tolerance relaxed to achieve convergence from 3.3200605043353843e-03 to 3.3200605043353943e-03 seconds.
Warning: Simulation tolerance relaxed to achieve convergence from 3.3200605043354043e-03 to 3.3200605043354143e-03 seconds.
Warning: Simulation tolerance relaxed to achieve convergence from 3.3200605043354242e-03 to 3.3200605043354342e-03 seconds.
Warning: Simulation tolerance relaxed to achieve convergence from 3.3200605043354641e-03 to 3.3200605043354741e-03 seconds.
Warning: Simulation tolerance relaxed to achieve convergence from 3.3200605043355340e-03 to 3.3200605043355439e-03 seconds.
Warning: Simulation tolerance relaxed to achieve convergence from 3.3200605043355439e-03 to 3.3200605043355539e-03 seconds.
Warning: Simulation tolerance relaxed to achieve convergence from 3.3200605043355639e-03 to 3.3200605043355738e-03 seconds.
Warning: Simulation tolerance relaxed to achieve convergence from 3.3200605043355938e-03 to 3.3200605043356038e-03 seconds.
Warning: Simulation tolerance relaxed to achieve convergence from 3.3200605043356337e-03 to 3.3200605043356437e-03 seconds.
Warning: Simulation tolerance relaxed to achieve convergence from 3.3200605043356437e-03 to 3.3200605043356536e-03 seconds.
Warning: Simulation tolerance relaxed to achieve convergence from 3.3200605043356736e-03 to 3.3200605043356836e-03 seconds.
Warning: Simulation tolerance relaxed to achieve convergence from 3.3200605043356836e-03 to 3.3200605043356935e-03 seconds.
Warning: Simulation tolerance relaxed to achieve convergence from 3.3200605043357235e-03 to 3.3200605043357334e-03 seconds.
Warning: Simulation tolerance relaxed to achieve convergence from 3.3200605043357833e-03 to 3.3200605043357933e-03 seconds.
Warning: Simulation tolerance relaxed to achieve convergence from 3.3200605043358731e-03 to 3.3200605043358831e-03 seconds.
Warning: Simulation tolerance relaxed to achieve convergence from 3.3200605043360431e-03 to 3.3200605043360531e-03 seconds.
Warning: Simulation tolerance relaxed to achieve convergence from 3.3200605043360531e-03 to 3.3200605043360630e-03 seconds.
Warning: Simulation tolerance relaxed to achieve convergence from 3.3200605043361229e-03 to 3.3200605043361329e-03 seconds.
Warning: Simulation tolerance relaxed to achieve convergence from 3.3200605043361329e-03 to 3.3200605043361428e-03 seconds.
Warning: Simulation tolerance relaxed to achieve convergence from 3.3200605043362127e-03 to 3.3200605043362226e-03 seconds.
Warning: Simulation tolerance relaxed to achieve convergence from 3.3200605043364126e-03 to 3.3200605043364226e-03 seconds.
Warning: Simulation tolerance relaxed to achieve convergence from 3.3200605043364226e-03 to 3.3200605043364325e-03 seconds.
Warning: Simulation tolerance relaxed to achieve convergence from 3.3200605043365123e-03 to 3.3200605043365223e-03 seconds.
Warning: Simulation tolerance relaxed to achieve convergence from 3.3200605043366320e-03 to 3.3200605043366420e-03 seconds.
Warning: Simulation tolerance relaxed to achieve convergence from 3.3200605043366719e-03 to 3.3200605043366819e-03 seconds.
Warning: Simulation tolerance relaxed to achieve convergence from 3.3200605043366919e-03 to 3.3200605043367019e-03 seconds.
Warning: Simulation tolerance relaxed to achieve convergence from 3.3200605043367218e-03 to 3.3200605043367318e-03 seconds.
Warning: Simulation tolerance relaxed to achieve convergence from 3.3200605043367318e-03 to 3.3200605043367418e-03 seconds.
Warning: Simulation tolerance relaxed to achieve convergence from 3.3200605043367817e-03 to 3.3200605043367916e-03 seconds.
Warning: Simulation tolerance relaxed to achieve convergence from 3.3200605043367916e-03 to 3.3200605043368016e-03 seconds.
Warning: Simulation tolerance relaxed to achieve convergence from 3.3200605043368415e-03 to 3.3200605043368515e-03 seconds.
Warning: Simulation tolerance relaxed to achieve convergence from 3.3200605043368515e-03 to 3.3200605043368614e-03 seconds.
Warning: Simulation tolerance relaxed to achieve convergence from 3.3200605043368614e-03 to 3.3200605043368714e-03 seconds.
Warning: Simulation tolerance relaxed to achieve convergence from 3.3200605043368914e-03 to 3.3200605043369013e-03 seconds.
Warning: Simulation tolerance relaxed to achieve convergence from 3.3200605043369013e-03 to 3.3200605043369113e-03 seconds.
Warning: Simulation tolerance relaxed to achieve convergence from 3.3200605043369612e-03 to 3.3200605043369712e-03 seconds.
Warning: Simulation tolerance relaxed to achieve convergence from 3.3200605043369911e-03 to 3.3200605043370011e-03 seconds.
Warning: Simulation tolerance relaxed to achieve convergence from 3.3200605043370011e-03 to 3.3200605043370111e-03 seconds.
Warning: Simulation tolerance relaxed to achieve convergence from 3.3200605043370210e-03 to 3.3200605043370310e-03 seconds.
Warning: Simulation tolerance relaxed to achieve convergence from 3.3200605043370609e-03 to 3.3200605043370709e-03 seconds.
Warning: Simulation tolerance relaxed to achieve convergence from 3.3200605043370909e-03 to 3.3200605043371008e-03 seconds.
Warning: Simulation tolerance relaxed to achieve convergence from 3.3200605043371008e-03 to 3.3200605043371108e-03 seconds.
Warning: Simulation tolerance relaxed to achieve convergence from 3.3200605043371407e-03 to 3.3200605043371507e-03 seconds.
Warning: Simulation tolerance relaxed to achieve convergence from 3.3200605043372006e-03 to 3.3200605043372106e-03 seconds.
Warning: Simulation tolerance relaxed to achieve convergence from 3.3200605043372305e-03 to 3.3200605043372405e-03 seconds.
Warning: Simulation tolerance relaxed to achieve convergence from 3.3200605043372505e-03 to 3.3200605043372604e-03 seconds.
Warning: Simulation tolerance relaxed to achieve convergence from 3.3200605043374105e-03 to 3.3200605043374205e-03 seconds.
Warning: Simulation tolerance relaxed to achieve convergence from 3.3200605043374803e-03 to 3.3200605043374903e-03 seconds.
Warning: Simulation tolerance relaxed to achieve convergence from 3.3200605043375701e-03 to 3.3200605043375801e-03 seconds.
Warning: Simulation tolerance relaxed to achieve convergence from 3.3200605043375801e-03 to 3.3200605043375900e-03 seconds.
Warning: Simulation tolerance relaxed to achieve convergence from 3.3200605043375900e-03 to 3.3200605043376000e-03 seconds.
Warning: Simulation tolerance relaxed to achieve convergence from 3.3200605043376399e-03 to 3.3200605043376499e-03 seconds.
Warning: Simulation tolerance relaxed to achieve convergence from 3.3200605043376599e-03 to 3.3200605043376698e-03 seconds.
Warning: Simulation tolerance relaxed to achieve convergence from 3.3200605043376698e-03 to 3.3200605043376798e-03 seconds.
Warning: Simulation tolerance relaxed to achieve convergence from 3.3200605043376998e-03 to 3.3200605043377097e-03 seconds.
Warning: Simulation tolerance relaxed to achieve convergence from 3.3200605043377696e-03 to 3.3200605043377795e-03 seconds.
Warning: Simulation tolerance relaxed to achieve convergence from 3.3200605043378194e-03 to 3.3200605043378294e-03 seconds.
Warning: Simulation tolerance relaxed to achieve convergence from 3.3200605043378294e-03 to 3.3200605043378394e-03 seconds.
Warning: Simulation tolerance relaxed to achieve convergence from 3.3200605043378394e-03 to 3.3200605043378494e-03 seconds.
Warning: Simulation tolerance relaxed to achieve convergence from 3.3200605043378593e-03 to 3.3200605043378693e-03 seconds.
Warning: Simulation tolerance relaxed to achieve convergence from 3.3200605043379391e-03 to 3.3200605043379491e-03 seconds.
Warning: Simulation tolerance relaxed to achieve convergence from 3.3200605043379491e-03 to 3.3200605043379591e-03 seconds.
Warning: Simulation tolerance relaxed to achieve convergence from 3.3200605043379890e-03 to 3.3200605043379990e-03 seconds.
Warning: Simulation tolerance relaxed to achieve convergence from 3.3200605043380090e-03 to 3.3200605043380189e-03 seconds.
Warning: Simulation tolerance relaxed to achieve convergence from 3.3200605043380189e-03 to 3.3200605043380289e-03 seconds.
Warning: Simulation tolerance relaxed to achieve convergence from 3.3200605043381690e-03 to 3.3200605043381790e-03 seconds.
Warning: Simulation tolerance relaxed to achieve convergence from 3.3200605043382189e-03 to 3.3200605043382288e-03 seconds.
Warning: Simulation tolerance relaxed to achieve convergence from 3.3200605043382887e-03 to 3.3200605043382987e-03 seconds.
Warning: Simulation tolerance relaxed to achieve convergence from 3.3200605043382987e-03 to 3.3200605043383086e-03 seconds.
Warning: Simulation tolerance relaxed to achieve convergence from 3.3200605043383086e-03 to 3.3200605043383186e-03 seconds.
Warning: Simulation tolerance relaxed to achieve convergence from 3.3200605043383286e-03 to 3.3200605043383386e-03 seconds.
Warning: Simulation tolerance relaxed to achieve convergence from 3.3200605043383386e-03 to 3.3200605043383485e-03 seconds.
Warning: Simulation tolerance relaxed to achieve convergence from 3.3200605043383485e-03 to 3.3200605043383585e-03 seconds.
Warning: Simulation tolerance relaxed to achieve convergence from 3.3200605043384383e-03 to 3.3200605043384483e-03 seconds.
Warning: Simulation tolerance relaxed to achieve convergence from 3.3200605043385081e-03 to 3.3200605043385181e-03 seconds.
Warning: Simulation tolerance relaxed to achieve convergence from 3.3200605043385381e-03 to 3.3200605043385480e-03 seconds.
Warning: Simulation tolerance relaxed to achieve convergence from 3.3200605043385480e-03 to 3.3200605043385580e-03 seconds.
Warning: Simulation tolerance relaxed to achieve convergence from 3.3200605043385580e-03 to 3.3200605043385680e-03 seconds.
Warning: Simulation tolerance relaxed to achieve convergence from 3.3200605043386777e-03 to 3.3200605043386877e-03 seconds.
Warning: Simulation tolerance relaxed to achieve convergence from 3.3200605043387076e-03 to 3.3200605043387176e-03 seconds.
Warning: Simulation tolerance relaxed to achieve convergence from 3.3200605043387276e-03 to 3.3200605043387376e-03 seconds.
Warning: Simulation tolerance relaxed to achieve convergence from 3.3200605043387475e-03 to 3.3200605043387575e-03 seconds.
Warning: Simulation tolerance relaxed to achieve convergence from 3.3200605043387774e-03 to 3.3200605043387874e-03 seconds.
Warning: Simulation tolerance relaxed to achieve convergence from 3.3200605043388173e-03 to 3.3200605043388273e-03 seconds.
Warning: Simulation tolerance relaxed to achieve convergence from 3.3200605043390372e-03 to 3.3200605043390472e-03 seconds.
Warning: Simulation tolerance relaxed to achieve convergence from 3.3200605043391070e-03 to 3.3200605043391170e-03 seconds.
Warning: Simulation tolerance relaxed to achieve convergence from 3.3200605043394670e-03 to 3.3200605043394770e-03 seconds.
Warning: Simulation tolerance relaxed to achieve convergence from 3.3200605043394770e-03 to 3.3200605043394870e-03 seconds.
Warning: Simulation tolerance relaxed to achieve convergence from 3.3200605043395568e-03 to 3.3200605043395667e-03 seconds.
Warning: Simulation tolerance relaxed to achieve convergence from 3.3200605043395667e-03 to 3.3200605043395767e-03 seconds.
Warning: Simulation tolerance relaxed to achieve convergence from 3.3200605043395867e-03 to 3.3200605043395967e-03 seconds.
Warning: Simulation tolerance relaxed to achieve convergence from 3.3200605043395967e-03 to 3.3200605043396066e-03 seconds.
Warning: Simulation tolerance relaxed to achieve convergence from 3.3200605043396465e-03 to 3.3200605043396565e-03 seconds.
Warning: Simulation tolerance relaxed to achieve convergence from 3.3200605043396765e-03 to 3.3200605043396864e-03 seconds.
Warning: Simulation tolerance relaxed to achieve convergence from 3.3200605043397263e-03 to 3.3200605043397363e-03 seconds.
Warning: Simulation tolerance relaxed to achieve convergence from 3.3200605043397862e-03 to 3.3200605043397962e-03 seconds.
Warning: Simulation tolerance relaxed to achieve convergence from 3.3200605043397962e-03 to 3.3200605043398061e-03 seconds.
Warning: Simulation tolerance relaxed to achieve convergence from 3.3200605043398261e-03 to 3.3200605043398361e-03 seconds.
Warning: Simulation tolerance relaxed to achieve convergence from 3.3200605043398361e-03 to 3.3200605043398460e-03 seconds.
Warning: Simulation tolerance relaxed to achieve convergence from 3.3200605043398560e-03 to 3.3200605043398660e-03 seconds.
Warning: Simulation tolerance relaxed to achieve convergence from 3.3200605043399059e-03 to 3.3200605043399159e-03 seconds.
Warning: Simulation tolerance relaxed to achieve convergence from 3.3200605043399757e-03 to 3.3200605043399857e-03 seconds.
Warning: Simulation tolerance relaxed to achieve convergence from 3.3200605043400655e-03 to 3.3200605043400755e-03 seconds.
Warning: Simulation tolerance relaxed to achieve convergence from 3.3200605043400954e-03 to 3.3200605043401054e-03 seconds.
Warning: Simulation tolerance relaxed to achieve convergence from 3.3200605043401054e-03 to 3.3200605043401154e-03 seconds.
Warning: Simulation tolerance relaxed to achieve convergence from 3.3200605043401752e-03 to 3.3200605043401852e-03 seconds.
Warning: Simulation tolerance relaxed to achieve convergence from 3.3200605043402251e-03 to 3.3200605043402351e-03 seconds.
Warning: Simulation tolerance relaxed to achieve convergence from 3.3200605043402351e-03 to 3.3200605043402450e-03 seconds.
Warning: Simulation tolerance relaxed to achieve convergence from 3.3200605043402450e-03 to 3.3200605043402550e-03 seconds.
Warning: Simulation tolerance relaxed to achieve convergence from 3.3200605043402749e-03 to 3.3200605043402849e-03 seconds.
Warning: Simulation tolerance relaxed to achieve convergence from 3.3200605043402849e-03 to 3.3200605043402949e-03 seconds.
Warning: Simulation tolerance relaxed to achieve convergence from 3.3200605043403148e-03 to 3.3200605043403248e-03 seconds.
Warning: Simulation tolerance relaxed to achieve convergence from 3.3200605043403348e-03 to 3.3200605043403448e-03 seconds.
Warning: Simulation tolerance relaxed to achieve convergence from 3.3200605043404046e-03 to 3.3200605043404146e-03 seconds.
Warning: Simulation tolerance relaxed to achieve convergence from 3.3200605043404146e-03 to 3.3200605043404246e-03 seconds.
Warning: Simulation tolerance relaxed to achieve convergence from 3.3200605043404944e-03 to 3.3200605043405044e-03 seconds.
Warning: Simulation tolerance relaxed to achieve convergence from 3.3200605043405243e-03 to 3.3200605043405343e-03 seconds.
Warning: Simulation tolerance relaxed to achieve convergence from 3.3200605043405642e-03 to 3.3200605043405742e-03 seconds.
Warning: Simulation tolerance relaxed to achieve convergence from 3.3200605043405842e-03 to 3.3200605043405941e-03 seconds.
Warning: Simulation tolerance relaxed to achieve convergence from 3.3200605043405941e-03 to 3.3200605043406041e-03 seconds.
Warning: Simulation tolerance relaxed to achieve convergence from 3.3200605043406440e-03 to 3.3200605043406540e-03 seconds.
Warning: Simulation tolerance relaxed to achieve convergence from 3.3200605043406739e-03 to 3.3200605043406839e-03 seconds.
Warning: Simulation tolerance relaxed to achieve convergence from 3.3200605043406839e-03 to 3.3200605043406939e-03 seconds.
Warning: Simulation tolerance relaxed to achieve convergence from 3.3200605043407039e-03 to 3.3200605043407138e-03 seconds.
Warning: Simulation tolerance relaxed to achieve convergence from 3.3200605043407138e-03 to 3.3200605043407238e-03 seconds.
Warning: Simulation tolerance relaxed to achieve convergence from 3.3200605043407238e-03 to 3.3200605043407338e-03 seconds.
Warning: Simulation tolerance relaxed to achieve convergence from 3.3200605043408236e-03 to 3.3200605043408335e-03 seconds.
Warning: Simulation tolerance relaxed to achieve convergence from 3.3200605043409034e-03 to 3.3200605043409133e-03 seconds.
Warning: Simulation tolerance relaxed to achieve convergence from 3.3200605043409233e-03 to 3.3200605043409333e-03 seconds.
Warning: Simulation tolerance relaxed to achieve convergence from 3.3200605043409333e-03 to 3.3200605043409433e-03 seconds.
Warning: Simulation tolerance relaxed to achieve convergence from 3.3200605043409632e-03 to 3.3200605043409732e-03 seconds.
Warning: Simulation tolerance relaxed to achieve convergence from 3.3200605043417234e-03 to 3.3200605043417334e-03 seconds.
Warning: Simulation tolerance relaxed to achieve convergence from 3.3200605043417334e-03 to 3.3200605043417434e-03 seconds.
Warning: Simulation tolerance relaxed to achieve convergence from 3.3200605043419234e-03 to 3.3200605043419333e-03 seconds.
Warning: Simulation tolerance relaxed to achieve convergence from 3.3200605043419333e-03 to 3.3200605043419433e-03 seconds.
Warning: Simulation tolerance relaxed to achieve convergence from 3.3200605043419533e-03 to 3.3200605043419633e-03 seconds.
Warning: Simulation tolerance relaxed to achieve convergence from 3.3200605043419732e-03 to 3.3200605043419832e-03 seconds.
Warning: Simulation tolerance relaxed to achieve convergence from 3.3200605043420630e-03 to 3.3200605043420730e-03 seconds.
Warning: Simulation tolerance relaxed to achieve convergence from 3.3200605043421029e-03 to 3.3200605043421129e-03 seconds.
Warning: Simulation tolerance relaxed to achieve convergence from 3.3200605043421129e-03 to 3.3200605043421229e-03 seconds.
Warning: Simulation tolerance relaxed to achieve convergence from 3.3200605043422326e-03 to 3.3200605043422426e-03 seconds.
Warning: Simulation tolerance relaxed to achieve convergence from 3.3200605043423224e-03 to 3.3200605043423323e-03 seconds.
Warning: Simulation tolerance relaxed to achieve convergence from 3.3200605043423323e-03 to 3.3200605043423423e-03 seconds.
Warning: Simulation tolerance relaxed to achieve convergence from 3.3200605043423423e-03 to 3.3200605043423523e-03 seconds.
Warning: Simulation tolerance relaxed to achieve convergence from 3.3200605043423523e-03 to 3.3200605043423623e-03 seconds.
Warning: Simulation tolerance relaxed to achieve convergence from 3.3200605043423722e-03 to 3.3200605043423822e-03 seconds.
Warning: Simulation tolerance relaxed to achieve convergence from 3.3200605043424121e-03 to 3.3200605043424221e-03 seconds.
Warning: Simulation tolerance relaxed to achieve convergence from 3.3200605043424421e-03 to 3.3200605043424520e-03 seconds.
Warning: Simulation tolerance relaxed to achieve convergence from 3.3200605043424520e-03 to 3.3200605043424620e-03 seconds.
Warning: Simulation tolerance relaxed to achieve convergence from 3.3200605043424620e-03 to 3.3200605043424720e-03 seconds.
Warning: Simulation tolerance relaxed to achieve convergence from 3.3200605043424820e-03 to 3.3200605043424919e-03 seconds.
Warning: Simulation tolerance relaxed to achieve convergence from 3.3200605043425119e-03 to 3.3200605043425219e-03 seconds.
Warning: Simulation tolerance relaxed to achieve convergence from 3.3200605043425219e-03 to 3.3200605043425318e-03 seconds.
Warning: Simulation tolerance relaxed to achieve convergence from 3.3200605043425318e-03 to 3.3200605043425418e-03 seconds.
Warning: Simulation tolerance relaxed to achieve convergence from 3.3200605043425617e-03 to 3.3200605043425717e-03 seconds.
Warning: Simulation tolerance relaxed to achieve convergence from 3.3200605043425917e-03 to 3.3200605043426016e-03 seconds.
Warning: Simulation tolerance relaxed to achieve convergence from 3.3200605043426216e-03 to 3.3200605043426316e-03 seconds.
Warning: Simulation tolerance relaxed to achieve convergence from 3.3200605043426515e-03 to 3.3200605043426615e-03 seconds.
Warning: Simulation tolerance relaxed to achieve convergence from 3.3200605043427213e-03 to 3.3200605043427313e-03 seconds.
Warning: Simulation tolerance relaxed to achieve convergence from 3.3200605043427413e-03 to 3.3200605043427513e-03 seconds.
Warning: Simulation tolerance relaxed to achieve convergence from 3.3200605043428011e-03 to 3.3200605043428111e-03 seconds.
Warning: Simulation tolerance relaxed to achieve convergence from 3.3200605043428111e-03 to 3.3200605043428211e-03 seconds.
Warning: Simulation tolerance relaxed to achieve convergence from 3.3200605043428211e-03 to 3.3200605043428311e-03 seconds.
Warning: Simulation tolerance relaxed to achieve convergence from 3.3200605043428311e-03 to 3.3200605043428410e-03 seconds.
Warning: Simulation tolerance relaxed to achieve convergence from 3.3200605043428909e-03 to 3.3200605043429009e-03 seconds.
Warning: Simulation tolerance relaxed to achieve convergence from 3.3200605043429009e-03 to 3.3200605043429109e-03 seconds.
Warning: Simulation tolerance relaxed to achieve convergence from 3.3200605043429208e-03 to 3.3200605043429308e-03 seconds.
Warning: Simulation tolerance relaxed to achieve convergence from 3.3200605043429907e-03 to 3.3200605043430006e-03 seconds.
Warning: Simulation tolerance relaxed to achieve convergence from 3.3200605043430306e-03 to 3.3200605043430405e-03 seconds.
Warning: Simulation tolerance relaxed to achieve convergence from 3.3200605043430705e-03 to 3.3200605043430804e-03 seconds.
Warning: Simulation tolerance relaxed to achieve convergence from 3.3200605043430804e-03 to 3.3200605043430904e-03 seconds.
Warning: Simulation tolerance relaxed to achieve convergence from 3.3200605043431203e-03 to 3.3200605043431303e-03 seconds.
Warning: Simulation tolerance relaxed to achieve convergence from 3.3200605043432001e-03 to 3.3200605043432101e-03 seconds.
Warning: Simulation tolerance relaxed to achieve convergence from 3.3200605043432999e-03 to 3.3200605043433098e-03 seconds.
Warning: Simulation tolerance relaxed to achieve convergence from 3.3200605043433198e-03 to 3.3200605043433298e-03 seconds.
Warning: Simulation tolerance relaxed to achieve convergence from 3.3200605043434096e-03 to 3.3200605043434196e-03 seconds.
Warning: Simulation tolerance relaxed to achieve convergence from 3.3200605043434196e-03 to 3.3200605043434295e-03 seconds.
Warning: Simulation tolerance relaxed to achieve convergence from 3.3200605043434295e-03 to 3.3200605043434395e-03 seconds.
Warning: Simulation tolerance relaxed to achieve convergence from 3.3200605043434694e-03 to 3.3200605043434794e-03 seconds.
Warning: Simulation tolerance relaxed to achieve convergence from 3.3200605043435592e-03 to 3.3200605043435692e-03 seconds.
Warning: Simulation tolerance relaxed to achieve convergence from 3.3200605043435692e-03 to 3.3200605043435792e-03 seconds.
Warning: Simulation tolerance relaxed to achieve convergence from 3.3200605043435991e-03 to 3.3200605043436091e-03 seconds.
Warning: Simulation tolerance relaxed to achieve convergence from 3.3200605043436490e-03 to 3.3200605043436590e-03 seconds.
Warning: Simulation tolerance relaxed to achieve convergence from 3.3200605043437388e-03 to 3.3200605043437487e-03 seconds.
Warning: Simulation tolerance relaxed to achieve convergence from 3.3200605043437986e-03 to 3.3200605043438086e-03 seconds.
Warning: Simulation tolerance relaxed to achieve convergence from 3.3200605043438285e-03 to 3.3200605043438385e-03 seconds.
Warning: Simulation tolerance relaxed to achieve convergence from 3.3200605043438684e-03 to 3.3200605043438784e-03 seconds.
Warning: Simulation tolerance relaxed to achieve convergence from 3.3200605043441182e-03 to 3.3200605043441282e-03 seconds.
Warning: Simulation tolerance relaxed to achieve convergence from 3.3200605043441282e-03 to 3.3200605043441382e-03 seconds.
Warning: Simulation tolerance relaxed to achieve convergence from 3.3200605043442978e-03 to 3.3200605043443077e-03 seconds.
Warning: Simulation tolerance relaxed to achieve convergence from 3.3200605043443377e-03 to 3.3200605043443476e-03 seconds.
Warning: Simulation tolerance relaxed to achieve convergence from 3.3200605043444075e-03 to 3.3200605043444175e-03 seconds.
Warning: Simulation tolerance relaxed to achieve convergence from 3.3200605043445771e-03 to 3.3200605043445870e-03 seconds.
Warning: Simulation tolerance relaxed to achieve convergence from 3.3200605043446469e-03 to 3.3200605043446569e-03 seconds.
Warning: Simulation tolerance relaxed to achieve convergence from 3.3200605043447367e-03 to 3.3200605043447466e-03 seconds.
Warning: Simulation tolerance relaxed to achieve convergence from 3.3200605043448564e-03 to 3.3200605043448663e-03 seconds.
Warning: Simulation tolerance relaxed to achieve convergence from 3.3200605043450663e-03 to 3.3200605043450762e-03 seconds.
Warning: Simulation tolerance relaxed to achieve convergence from 3.3200605043450762e-03 to 3.3200605043450862e-03 seconds.
Warning: Simulation tolerance relaxed to achieve convergence from 3.3200605043450862e-03 to 3.3200605043450962e-03 seconds.
Warning: Simulation tolerance relaxed to achieve convergence from 3.3200605043450962e-03 to 3.3200605043451062e-03 seconds.
Warning: Simulation tolerance relaxed to achieve convergence from 3.3200605043451261e-03 to 3.3200605043451361e-03 seconds.
Warning: Simulation tolerance relaxed to achieve convergence from 3.3200605043464167e-03 to 3.3200605043464267e-03 seconds.
Warning: Simulation tolerance relaxed to achieve convergence from 3.3200605043464367e-03 to 3.3200605043464467e-03 seconds.
Warning: Simulation tolerance relaxed to achieve convergence from 3.3200605043464566e-03 to 3.3200605043464666e-03 seconds.
Warning: Simulation tolerance relaxed to achieve convergence from 3.3200605043465265e-03 to 3.3200605043465364e-03 seconds.
Warning: Simulation tolerance relaxed to achieve convergence from 3.3200605043465863e-03 to 3.3200605043465963e-03 seconds.
Warning: Simulation tolerance relaxed to achieve convergence from 3.3200605043466162e-03 to 3.3200605043466262e-03 seconds.
Warning: Simulation tolerance relaxed to achieve convergence from 3.3200605043466262e-03 to 3.3200605043466362e-03 seconds.
Warning: Simulation tolerance relaxed to achieve convergence from 3.3200605043466661e-03 to 3.3200605043466761e-03 seconds.
Warning: Simulation tolerance relaxed to achieve convergence from 3.3200605043466960e-03 to 3.3200605043467060e-03 seconds.
Warning: Simulation tolerance relaxed to achieve convergence from 3.3200605043467260e-03 to 3.3200605043467359e-03 seconds.
Warning: Simulation tolerance relaxed to achieve convergence from 3.3200605043467559e-03 to 3.3200605043467659e-03 seconds.
Warning: Simulation tolerance relaxed to achieve convergence from 3.3200605043468257e-03 to 3.3200605043468357e-03 seconds.
Warning: Simulation tolerance relaxed to achieve convergence from 3.3200605043469055e-03 to 3.3200605043469155e-03 seconds.
Warning: Simulation tolerance relaxed to achieve convergence from 3.3200605043474758e-03 to 3.3200605043474858e-03 seconds.
Warning: Simulation tolerance relaxed to achieve convergence from 3.3200605043474858e-03 to 3.3200605043474957e-03 seconds.
Warning: Simulation tolerance relaxed to achieve convergence from 3.3200605043475057e-03 to 3.3200605043475157e-03 seconds.
Warning: Simulation tolerance relaxed to achieve convergence from 3.3200605043475157e-03 to 3.3200605043475257e-03 seconds.
Warning: Simulation tolerance relaxed to achieve convergence from 3.3200605043475257e-03 to 3.3200605043475356e-03 seconds.
Warning: Simulation tolerance relaxed to achieve convergence from 3.3200605043475356e-03 to 3.3200605043475456e-03 seconds.
Warning: Simulation tolerance relaxed to achieve convergence from 3.3200605043475755e-03 to 3.3200605043475855e-03 seconds.
Warning: Simulation tolerance relaxed to achieve convergence from 3.3200605043475855e-03 to 3.3200605043475955e-03 seconds.
Warning: Simulation tolerance relaxed to achieve convergence from 3.3200605043475955e-03 to 3.3200605043476055e-03 seconds.
Warning: Simulation tolerance relaxed to achieve convergence from 3.3200605043476055e-03 to 3.3200605043476154e-03 seconds.
Warning: Simulation tolerance relaxed to achieve convergence from 3.3200605043478253e-03 to 3.3200605043478353e-03 seconds.
Warning: Simulation tolerance relaxed to achieve convergence from 3.3200605043478353e-03 to 3.3200605043478453e-03 seconds.
Warning: Simulation tolerance relaxed to achieve convergence from 3.3200605043478453e-03 to 3.3200605043478553e-03 seconds.
Warning: Simulation tolerance relaxed to achieve convergence from 3.3200605043478852e-03 to 3.3200605043478952e-03 seconds.
Warning: Simulation tolerance relaxed to achieve convergence from 3.3200605043479251e-03 to 3.3200605043479351e-03 seconds.
Warning: Simulation tolerance relaxed to achieve convergence from 3.3200605043480548e-03 to 3.3200605043480647e-03 seconds.
Warning: Simulation tolerance relaxed to achieve convergence from 3.3200605043481345e-03 to 3.3200605043481445e-03 seconds.
Warning: Simulation tolerance relaxed to achieve convergence from 3.3200605043481445e-03 to 3.3200605043481545e-03 seconds.
Warning: Simulation tolerance relaxed to achieve convergence from 3.3200605043481744e-03 to 3.3200605043481844e-03 seconds.
Warning: Simulation tolerance relaxed to achieve convergence from 3.3200605043481844e-03 to 3.3200605043481944e-03 seconds.
Warning: Simulation tolerance relaxed to achieve convergence from 3.3200605043482243e-03 to 3.3200605043482343e-03 seconds.
Warning: Simulation tolerance relaxed to achieve convergence from 3.3200605043483241e-03 to 3.3200605043483340e-03 seconds.
Warning: Simulation tolerance relaxed to achieve convergence from 3.3200605043484741e-03 to 3.3200605043484841e-03 seconds.
Warning: Simulation tolerance relaxed to achieve convergence from 3.3200605043484841e-03 to 3.3200605043484941e-03 seconds.
Warning: Simulation tolerance relaxed to achieve convergence from 3.3200605043484941e-03 to 3.3200605043485040e-03 seconds.
Warning: Simulation tolerance relaxed to achieve convergence from 3.3200605043485040e-03 to 3.3200605043485140e-03 seconds.
Warning: Simulation tolerance relaxed to achieve convergence from 3.3200605043485140e-03 to 3.3200605043485240e-03 seconds.
Warning: Simulation tolerance relaxed to achieve convergence from 3.3200605043485240e-03 to 3.3200605043485340e-03 seconds.
Warning: Simulation tolerance relaxed to achieve convergence from 3.3200605043485340e-03 to 3.3200605043485439e-03 seconds.
Warning: Simulation tolerance relaxed to achieve convergence from 3.3200605043485439e-03 to 3.3200605043485539e-03 seconds.
Warning: Simulation tolerance relaxed to achieve convergence from 3.3200605043485539e-03 to 3.3200605043485639e-03 seconds.
Warning: Simulation tolerance relaxed to achieve convergence from 3.3200605043486437e-03 to 3.3200605043486537e-03 seconds.
Warning: Simulation tolerance relaxed to achieve convergence from 3.3200605043486736e-03 to 3.3200605043486836e-03 seconds.
Warning: Simulation tolerance relaxed to achieve convergence from 3.3200605043486836e-03 to 3.3200605043486936e-03 seconds.
Warning: Simulation tolerance relaxed to achieve convergence from 3.3200605043486936e-03 to 3.3200605043487035e-03 seconds.
Warning: Simulation tolerance relaxed to achieve convergence from 3.3200605043487335e-03 to 3.3200605043487434e-03 seconds.
Warning: Simulation tolerance relaxed to achieve convergence from 3.3200605043487434e-03 to 3.3200605043487534e-03 seconds.
Warning: Simulation tolerance relaxed to achieve convergence from 3.3200605043487634e-03 to 3.3200605043487734e-03 seconds.
Warning: Simulation tolerance relaxed to achieve convergence from 3.3200605043487933e-03 to 3.3200605043488033e-03 seconds.
Warning: Simulation tolerance relaxed to achieve convergence from 3.3200605043488133e-03 to 3.3200605043488232e-03 seconds.
Warning: Simulation tolerance relaxed to achieve convergence from 3.3200605043488532e-03 to 3.3200605043488631e-03 seconds.
Warning: Simulation tolerance relaxed to achieve convergence from 3.3200605043488831e-03 to 3.3200605043488931e-03 seconds.
Warning: Simulation tolerance relaxed to achieve convergence from 3.3200605043488931e-03 to 3.3200605043489030e-03 seconds.
Warning: Simulation tolerance relaxed to achieve convergence from 3.3200605043489330e-03 to 3.3200605043489429e-03 seconds.
Warning: Simulation tolerance relaxed to achieve convergence from 3.3200605043489429e-03 to 3.3200605043489529e-03 seconds.
Warning: Simulation tolerance relaxed to achieve convergence from 3.3200605043490327e-03 to 3.3200605043490427e-03 seconds.
Warning: Simulation tolerance relaxed to achieve convergence from 3.3200605043490626e-03 to 3.3200605043490726e-03 seconds.
Warning: Simulation tolerance relaxed to achieve convergence from 3.3200605043490726e-03 to 3.3200605043490826e-03 seconds.
Warning: Simulation tolerance relaxed to achieve convergence from 3.3200605043491125e-03 to 3.3200605043491225e-03 seconds.
Warning: Simulation tolerance relaxed to achieve convergence from 3.3200605043491324e-03 to 3.3200605043491424e-03 seconds.
Warning: Simulation tolerance relaxed to achieve convergence from 3.3200605043491624e-03 to 3.3200605043491723e-03 seconds.
Warning: Simulation tolerance relaxed to achieve convergence from 3.3200605043492222e-03 to 3.3200605043492322e-03 seconds.
Warning: Simulation tolerance relaxed to achieve convergence from 3.3200605043492422e-03 to 3.3200605043492521e-03 seconds.
Warning: Simulation tolerance relaxed to achieve convergence from 3.3200605043493619e-03 to 3.3200605043493718e-03 seconds.
Warning: Simulation tolerance relaxed to achieve convergence from 3.3200605043494317e-03 to 3.3200605043494417e-03 seconds.
Warning: Simulation tolerance relaxed to achieve convergence from 3.3200605043495314e-03 to 3.3200605043495414e-03 seconds.
Warning: Simulation tolerance relaxed to achieve convergence from 3.3200605043495414e-03 to 3.3200605043495514e-03 seconds.
Warning: Simulation tolerance relaxed to achieve convergence from 3.3200605043495813e-03 to 3.3200605043495913e-03 seconds.
Warning: Simulation tolerance relaxed to achieve convergence from 3.3200605043496412e-03 to 3.3200605043496511e-03 seconds.
Warning: Simulation tolerance relaxed to achieve convergence from 3.3200605043496511e-03 to 3.3200605043496611e-03 seconds.
Warning: Simulation tolerance relaxed to achieve convergence from 3.3200605043496611e-03 to 3.3200605043496711e-03 seconds.
Warning: Simulation tolerance relaxed to achieve convergence from 3.3200605043496711e-03 to 3.3200605043496811e-03 seconds.
Warning: Simulation tolerance relaxed to achieve convergence from 3.3200605043497010e-03 to 3.3200605043497110e-03 seconds.
Warning: Simulation tolerance relaxed to achieve convergence from 3.3200605043497309e-03 to 3.3200605043497409e-03 seconds.
Warning: Simulation tolerance relaxed to achieve convergence from 3.3200605043497509e-03 to 3.3200605043497609e-03 seconds.
Warning: Simulation tolerance relaxed to achieve convergence from 3.3200605043499009e-03 to 3.3200605043499109e-03 seconds.
Warning: Simulation tolerance relaxed to achieve convergence from 3.3200605043499508e-03 to 3.3200605043499608e-03 seconds.
Warning: Simulation tolerance relaxed to achieve convergence from 3.3200605043499608e-03 to 3.3200605043499708e-03 seconds.
Warning: Simulation tolerance relaxed to achieve convergence from 3.3200605043501408e-03 to 3.3200605043501507e-03 seconds.
Warning: Simulation tolerance relaxed to achieve convergence from 3.3200605043502206e-03 to 3.3200605043502305e-03 seconds.
Warning: Simulation tolerance relaxed to achieve convergence from 3.3200605043502505e-03 to 3.3200605043502605e-03 seconds.
Warning: Simulation tolerance relaxed to achieve convergence from 3.3200605043502605e-03 to 3.3200605043502704e-03 seconds.
Warning: Simulation tolerance relaxed to achieve convergence from 3.3200605043503004e-03 to 3.3200605043503103e-03 seconds.
Warning: Simulation tolerance relaxed to achieve convergence from 3.3200605043504504e-03 to 3.3200605043504604e-03 seconds.
Warning: Simulation tolerance relaxed to achieve convergence from 3.3200605043504704e-03 to 3.3200605043504803e-03 seconds.
Warning: Simulation tolerance relaxed to achieve convergence from 3.3200605043504803e-03 to 3.3200605043504903e-03 seconds.
Warning: Simulation tolerance relaxed to achieve convergence from 3.3200605043504903e-03 to 3.3200605043505003e-03 seconds.
Warning: Simulation tolerance relaxed to achieve convergence from 3.3200605043505302e-03 to 3.3200605043505402e-03 seconds.
Warning: Simulation tolerance relaxed to achieve convergence from 3.3200605043506000e-03 to 3.3200605043506100e-03 seconds.
Warning: Simulation tolerance relaxed to achieve convergence from 3.3200605043506698e-03 to 3.3200605043506798e-03 seconds.
Warning: Simulation tolerance relaxed to achieve convergence from 3.3200605043506798e-03 to 3.3200605043506898e-03 seconds.
Warning: Simulation tolerance relaxed to achieve convergence from 3.3200605043507197e-03 to 3.3200605043507297e-03 seconds.
Warning: Simulation tolerance relaxed to achieve convergence from 3.3200605043507297e-03 to 3.3200605043507397e-03 seconds.
Warning: Simulation tolerance relaxed to achieve convergence from 3.3200605043507397e-03 to 3.3200605043507496e-03 seconds.
Warning: Simulation tolerance relaxed to achieve convergence from 3.3200605043507995e-03 to 3.3200605043508095e-03 seconds.
Warning: Simulation tolerance relaxed to achieve convergence from 3.3200605043508095e-03 to 3.3200605043508195e-03 seconds.
Warning: Simulation tolerance relaxed to achieve convergence from 3.3200605043508793e-03 to 3.3200605043508893e-03 seconds.
Warning: Simulation tolerance relaxed to achieve convergence from 3.3200605043512991e-03 to 3.3200605043513091e-03 seconds.
Warning: Simulation tolerance relaxed to achieve convergence from 3.3200605043513191e-03 to 3.3200605043513290e-03 seconds.
Warning: Simulation tolerance relaxed to achieve convergence from 3.3200605043513290e-03 to 3.3200605043513390e-03 seconds.
Warning: Simulation tolerance relaxed to achieve convergence from 3.3200605043513390e-03 to 3.3200605043513490e-03 seconds.
Warning: Simulation tolerance relaxed to achieve convergence from 3.3200605043515489e-03 to 3.3200605043515589e-03 seconds.
Warning: Simulation tolerance relaxed to achieve convergence from 3.3200605043515888e-03 to 3.3200605043515988e-03 seconds.
Warning: Simulation tolerance relaxed to achieve convergence from 3.3200605043516088e-03 to 3.3200605043516187e-03 seconds.
Warning: Simulation tolerance relaxed to achieve convergence from 3.3200605043516487e-03 to 3.3200605043516586e-03 seconds.
Warning: Simulation tolerance relaxed to achieve convergence from 3.3200605043516686e-03 to 3.3200605043516786e-03 seconds.
Warning: Simulation tolerance relaxed to achieve convergence from 3.3200605043516786e-03 to 3.3200605043516886e-03 seconds.
Warning: Simulation tolerance relaxed to achieve convergence from 3.3200605043517285e-03 to 3.3200605043517384e-03 seconds.
Warning: Simulation tolerance relaxed to achieve convergence from 3.3200605043518581e-03 to 3.3200605043518681e-03 seconds.
Warning: Simulation tolerance relaxed to achieve convergence from 3.3200605043518681e-03 to 3.3200605043518781e-03 seconds.
Warning: Simulation tolerance relaxed to achieve convergence from 3.3200605043525984e-03 to 3.3200605043526084e-03 seconds.
Warning: Simulation tolerance relaxed to achieve convergence from 3.3200605043526383e-03 to 3.3200605043526483e-03 seconds.
Warning: Simulation tolerance relaxed to achieve convergence from 3.3200605043526682e-03 to 3.3200605043526782e-03 seconds.
Warning: Simulation tolerance relaxed to achieve convergence from 3.3200605043527480e-03 to 3.3200605043527580e-03 seconds.
Warning: Simulation tolerance relaxed to achieve convergence from 3.3200605043527780e-03 to 3.3200605043527879e-03 seconds.
Warning: Simulation tolerance relaxed to achieve convergence from 3.3200605043527879e-03 to 3.3200605043527979e-03 seconds.
Warning: Simulation tolerance relaxed to achieve convergence from 3.3200605043528378e-03 to 3.3200605043528478e-03 seconds.
Warning: Simulation tolerance relaxed to achieve convergence from 3.3200605043528977e-03 to 3.3200605043529076e-03 seconds.
Warning: Simulation tolerance relaxed to achieve convergence from 3.3200605043529076e-03 to 3.3200605043529176e-03 seconds.
Warning: Simulation tolerance relaxed to achieve convergence from 3.3200605043529176e-03 to 3.3200605043529276e-03 seconds.
Warning: Simulation tolerance relaxed to achieve convergence from 3.3200605043529276e-03 to 3.3200605043529376e-03 seconds.
Warning: Simulation tolerance relaxed to achieve convergence from 3.3200605043529775e-03 to 3.3200605043529874e-03 seconds.
Warning: Simulation tolerance relaxed to achieve convergence from 3.3200605043531375e-03 to 3.3200605043531475e-03 seconds.
Warning: Simulation tolerance relaxed to achieve convergence from 3.3200605043531774e-03 to 3.3200605043531874e-03 seconds.
Warning: Simulation tolerance relaxed to achieve convergence from 3.3200605043535673e-03 to 3.3200605043535772e-03 seconds.
Warning: Simulation tolerance relaxed to achieve convergence from 3.3200605043535772e-03 to 3.3200605043535872e-03 seconds.
Warning: Simulation tolerance relaxed to achieve convergence from 3.3200605043536271e-03 to 3.3200605043536371e-03 seconds.
Warning: Simulation tolerance relaxed to achieve convergence from 3.3200605043536770e-03 to 3.3200605043536870e-03 seconds.
Warning: Simulation tolerance relaxed to achieve convergence from 3.3200605043536870e-03 to 3.3200605043536969e-03 seconds.
Warning: Simulation tolerance relaxed to achieve convergence from 3.3200605043537069e-03 to 3.3200605043537169e-03 seconds.
Warning: Simulation tolerance relaxed to achieve convergence from 3.3200605043537468e-03 to 3.3200605043537568e-03 seconds.
Warning: Simulation tolerance relaxed to achieve convergence from 3.3200605043537568e-03 to 3.3200605043537668e-03 seconds.
Warning: Simulation tolerance relaxed to achieve convergence from 3.3200605043538166e-03 to 3.3200605043538266e-03 seconds.
Warning: Simulation tolerance relaxed to achieve convergence from 3.3200605043538466e-03 to 3.3200605043538565e-03 seconds.
Warning: Simulation tolerance relaxed to achieve convergence from 3.3200605043538665e-03 to 3.3200605043538765e-03 seconds.
Warning: Simulation tolerance relaxed to achieve convergence from 3.3200605043539064e-03 to 3.3200605043539164e-03 seconds.
Warning: Simulation tolerance relaxed to achieve convergence from 3.3200605043539962e-03 to 3.3200605043540062e-03 seconds.
Warning: Simulation tolerance relaxed to achieve convergence from 3.3200605043540062e-03 to 3.3200605043540161e-03 seconds.
Warning: Simulation tolerance relaxed to achieve convergence from 3.3200605043540361e-03 to 3.3200605043540461e-03 seconds.
Warning: Simulation tolerance relaxed to achieve convergence from 3.3200605043544260e-03 to 3.3200605043544359e-03 seconds.
Warning: Simulation tolerance relaxed to achieve convergence from 3.3200605043544858e-03 to 3.3200605043544958e-03 seconds.
Warning: Simulation tolerance relaxed to achieve convergence from 3.3200605043545457e-03 to 3.3200605043545556e-03 seconds.
Warning: Simulation tolerance relaxed to achieve convergence from 3.3200605043545556e-03 to 3.3200605043545656e-03 seconds.
Warning: Simulation tolerance relaxed to achieve convergence from 3.3200605043545756e-03 to 3.3200605043545856e-03 seconds.
Warning: Simulation tolerance relaxed to achieve convergence from 3.3200605043545856e-03 to 3.3200605043545955e-03 seconds.
Warning: Simulation tolerance relaxed to achieve convergence from 3.3200605043546753e-03 to 3.3200605043546853e-03 seconds.
Warning: Simulation tolerance relaxed to achieve convergence from 3.3200605043546853e-03 to 3.3200605043546953e-03 seconds.
Warning: Simulation tolerance relaxed to achieve convergence from 3.3200605043546953e-03 to 3.3200605043547052e-03 seconds.
Warning: Simulation tolerance relaxed to achieve convergence from 3.3200605043547850e-03 to 3.3200605043547950e-03 seconds.
Warning: Simulation tolerance relaxed to achieve convergence from 3.3200605043548050e-03 to 3.3200605043548150e-03 seconds.
Warning: Simulation tolerance relaxed to achieve convergence from 3.3200605043548150e-03 to 3.3200605043548249e-03 seconds.
Warning: Simulation tolerance relaxed to achieve convergence from 3.3200605043548549e-03 to 3.3200605043548648e-03 seconds.
Warning: Simulation tolerance relaxed to achieve convergence from 3.3200605043548648e-03 to 3.3200605043548748e-03 seconds.
Warning: Simulation tolerance relaxed to achieve convergence from 3.3200605043548748e-03 to 3.3200605043548848e-03 seconds.
Warning: Simulation tolerance relaxed to achieve convergence from 3.3200605043548848e-03 to 3.3200605043548948e-03 seconds.
Warning: Simulation tolerance relaxed to achieve convergence from 3.3200605043549047e-03 to 3.3200605043549147e-03 seconds.
Warning: Simulation tolerance relaxed to achieve convergence from 3.3200605043549347e-03 to 3.3200605043549446e-03 seconds.
Warning: Simulation tolerance relaxed to achieve convergence from 3.3200605043554546e-03 to 3.3200605043554646e-03 seconds.
Warning: Simulation tolerance relaxed to achieve convergence from 3.3200605043554846e-03 to 3.3200605043554945e-03 seconds.
Warning: Simulation tolerance relaxed to achieve convergence from 3.3200605043555145e-03 to 3.3200605043555245e-03 seconds.
Warning: Simulation tolerance relaxed to achieve convergence from 3.3200605043555644e-03 to 3.3200605043555743e-03 seconds.
Warning: Simulation tolerance relaxed to achieve convergence from 3.3200605043555843e-03 to 3.3200605043555943e-03 seconds.
Warning: Simulation tolerance relaxed to achieve convergence from 3.3200605043556541e-03 to 3.3200605043556641e-03 seconds.
Warning: Simulation tolerance relaxed to achieve convergence from 3.3200605043556641e-03 to 3.3200605043556741e-03 seconds.
Warning: Simulation tolerance relaxed to achieve convergence from 3.3200605043556841e-03 to 3.3200605043556940e-03 seconds.
Warning: Simulation tolerance relaxed to achieve convergence from 3.3200605043557040e-03 to 3.3200605043557140e-03 seconds.
Warning: Simulation tolerance relaxed to achieve convergence from 3.3200605043557439e-03 to 3.3200605043557539e-03 seconds.
Warning: Simulation tolerance relaxed to achieve convergence from 3.3200605043557539e-03 to 3.3200605043557639e-03 seconds.
Warning: Simulation tolerance relaxed to achieve convergence from 3.3200605043560536e-03 to 3.3200605043560635e-03 seconds.
Warning: Simulation tolerance relaxed to achieve convergence from 3.3200605043560835e-03 to 3.3200605043560935e-03 seconds.
Warning: Simulation tolerance relaxed to achieve convergence from 3.3200605043560935e-03 to 3.3200605043561034e-03 seconds.
Warning: Simulation tolerance relaxed to achieve convergence from 3.3200605043561334e-03 to 3.3200605043561433e-03 seconds.
Warning: Simulation tolerance relaxed to achieve convergence from 3.3200605043561932e-03 to 3.3200605043562032e-03 seconds.
Warning: Simulation tolerance relaxed to achieve convergence from 3.3200605043562132e-03 to 3.3200605043562231e-03 seconds.
Warning: Simulation tolerance relaxed to achieve convergence from 3.3200605043562231e-03 to 3.3200605043562331e-03 seconds.
Warning: Simulation tolerance relaxed to achieve convergence from 3.3200605043562930e-03 to 3.3200605043563029e-03 seconds.
Warning: Simulation tolerance relaxed to achieve convergence from 3.3200605043563229e-03 to 3.3200605043563329e-03 seconds.
Warning: Simulation tolerance relaxed to achieve convergence from 3.3200605043563329e-03 to 3.3200605043563428e-03 seconds.
Warning: Simulation tolerance relaxed to achieve convergence from 3.3200605043563628e-03 to 3.3200605043563727e-03 seconds.
Warning: Simulation tolerance relaxed to achieve convergence from 3.3200605043563727e-03 to 3.3200605043563827e-03 seconds.
Warning: Simulation tolerance relaxed to achieve convergence from 3.3200605043563827e-03 to 3.3200605043563927e-03 seconds.
Warning: Simulation tolerance relaxed to achieve convergence from 3.3200605043564126e-03 to 3.3200605043564226e-03 seconds.
Warning: Simulation tolerance relaxed to achieve convergence from 3.3200605043564725e-03 to 3.3200605043564825e-03 seconds.
Warning: Simulation tolerance relaxed to achieve convergence from 3.3200605043564825e-03 to 3.3200605043564924e-03 seconds.
Warning: Simulation tolerance relaxed to achieve convergence from 3.3200605043567023e-03 to 3.3200605043567123e-03 seconds.
Warning: Simulation tolerance relaxed to achieve convergence from 3.3200605043567223e-03 to 3.3200605043567323e-03 seconds.
Warning: Simulation tolerance relaxed to achieve convergence from 3.3200605043567522e-03 to 3.3200605043567622e-03 seconds.
Warning: Simulation tolerance relaxed to achieve convergence from 3.3200605043568719e-03 to 3.3200605043568819e-03 seconds.
Warning: Simulation tolerance relaxed to achieve convergence from 3.3200605043568919e-03 to 3.3200605043569018e-03 seconds.
Warning: Simulation tolerance relaxed to achieve convergence from 3.3200605043569018e-03 to 3.3200605043569118e-03 seconds.
Warning: Simulation tolerance relaxed to achieve convergence from 3.3200605043569717e-03 to 3.3200605043569816e-03 seconds.
Warning: Simulation tolerance relaxed to achieve convergence from 3.3200605043570016e-03 to 3.3200605043570116e-03 seconds.
Warning: Simulation tolerance relaxed to achieve convergence from 3.3200605043570116e-03 to 3.3200605043570215e-03 seconds.
Warning: Simulation tolerance relaxed to achieve convergence from 3.3200605043571811e-03 to 3.3200605043571911e-03 seconds.
Warning: Simulation tolerance relaxed to achieve convergence from 3.3200605043572410e-03 to 3.3200605043572510e-03 seconds.
Warning: Simulation tolerance relaxed to achieve convergence from 3.3200605043572510e-03 to 3.3200605043572609e-03 seconds.
Warning: Simulation tolerance relaxed to achieve convergence from 3.3200605043574210e-03 to 3.3200605043574309e-03 seconds.
Warning: Simulation tolerance relaxed to achieve convergence from 3.3200605043574309e-03 to 3.3200605043574409e-03 seconds.
Warning: Simulation tolerance relaxed to achieve convergence from 3.3200605043575008e-03 to 3.3200605043575107e-03 seconds.
Warning: Simulation tolerance relaxed to achieve convergence from 3.3200605043575107e-03 to 3.3200605043575207e-03 seconds.
Warning: Simulation tolerance relaxed to achieve convergence from 3.3200605043575307e-03 to 3.3200605043575407e-03 seconds.
Warning: Simulation tolerance relaxed to achieve convergence from 3.3200605043575407e-03 to 3.3200605043575506e-03 seconds.
Warning: Simulation tolerance relaxed to achieve convergence from 3.3200605043575606e-03 to 3.3200605043575706e-03 seconds.
Warning: Simulation tolerance relaxed to achieve convergence from 3.3200605043577107e-03 to 3.3200605043577206e-03 seconds.
Warning: Simulation tolerance relaxed to achieve convergence from 3.3200605043580606e-03 to 3.3200605043580706e-03 seconds.
Warning: Simulation tolerance relaxed to achieve convergence from 3.3200605043581404e-03 to 3.3200605043581504e-03 seconds.
Warning: Simulation tolerance relaxed to achieve convergence from 3.3200605043582103e-03 to 3.3200605043582202e-03 seconds.
Warning: Simulation tolerance relaxed to achieve convergence from 3.3200605043582402e-03 to 3.3200605043582502e-03 seconds.
Warning: Simulation tolerance relaxed to achieve convergence from 3.3200605043583200e-03 to 3.3200605043583300e-03 seconds.
Warning: Simulation tolerance relaxed to achieve convergence from 3.3200605043588100e-03 to 3.3200605043588200e-03 seconds.
Warning: Simulation tolerance relaxed to achieve convergence from 3.3200605043588200e-03 to 3.3200605043588300e-03 seconds.
Warning: Simulation tolerance relaxed to achieve convergence from 3.3200605043589198e-03 to 3.3200605043589297e-03 seconds.
Warning: Simulation tolerance relaxed to achieve convergence from 3.3200605043589397e-03 to 3.3200605043589497e-03 seconds.
Warning: Simulation tolerance relaxed to achieve convergence from 3.3200605043594792e-03 to 3.3200605043594892e-03 seconds.
Warning: Simulation tolerance relaxed to achieve convergence from 3.3200605043594892e-03 to 3.3200605043594992e-03 seconds.
Warning: Simulation tolerance relaxed to achieve convergence from 3.3200605043595191e-03 to 3.3200605043595291e-03 seconds.
Warning: Simulation tolerance relaxed to achieve convergence from 3.3200605043595590e-03 to 3.3200605043595690e-03 seconds.
Warning: Simulation tolerance relaxed to achieve convergence from 3.3200605043597091e-03 to 3.3200605043597190e-03 seconds.
Warning: Simulation tolerance relaxed to achieve convergence from 3.3200605043597390e-03 to 3.3200605043597490e-03 seconds.
Warning: Simulation tolerance relaxed to achieve convergence from 3.3200605043597490e-03 to 3.3200605043597589e-03 seconds.
Warning: Simulation tolerance relaxed to achieve convergence from 3.3200605043597988e-03 to 3.3200605043598088e-03 seconds.
Warning: Simulation tolerance relaxed to achieve convergence from 3.3200605043598188e-03 to 3.3200605043598288e-03 seconds.
Warning: Simulation tolerance relaxed to achieve convergence from 3.3200605043598487e-03 to 3.3200605043598587e-03 seconds.
Warning: Simulation tolerance relaxed to achieve convergence from 3.3200605043599584e-03 to 3.3200605043599684e-03 seconds.
Warning: Simulation tolerance relaxed to achieve convergence from 3.3200605043607781e-03 to 3.3200605043607881e-03 seconds.
Warning: Simulation tolerance relaxed to achieve convergence from 3.3200605043607881e-03 to 3.3200605043607980e-03 seconds.
Warning: Simulation tolerance relaxed to achieve convergence from 3.3200605043609381e-03 to 3.3200605043609481e-03 seconds.
Warning: Simulation tolerance relaxed to achieve convergence from 3.3200605043609481e-03 to 3.3200605043609581e-03 seconds.
Warning: Simulation tolerance relaxed to achieve convergence from 3.3200605043611081e-03 to 3.3200605043611181e-03 seconds.
Warning: Simulation tolerance relaxed to achieve convergence from 3.3200605043611380e-03 to 3.3200605043611480e-03 seconds.
Warning: Simulation tolerance relaxed to achieve convergence from 3.3200605043614481e-03 to 3.3200605043614581e-03 seconds.
Warning: Simulation tolerance relaxed to achieve convergence from 3.3200605043614581e-03 to 3.3200605043614681e-03 seconds.
Warning: Simulation tolerance relaxed to achieve convergence from 3.3200605043614780e-03 to 3.3200605043614880e-03 seconds.
Warning: Simulation tolerance relaxed to achieve convergence from 3.3200605043614880e-03 to 3.3200605043614980e-03 seconds.
Warning: Simulation tolerance relaxed to achieve convergence from 3.3200605043615578e-03 to 3.3200605043615678e-03 seconds.
Warning: Simulation tolerance relaxed to achieve convergence from 3.3200605043615878e-03 to 3.3200605043615977e-03 seconds.
Warning: Simulation tolerance relaxed to achieve convergence from 3.3200605043615977e-03 to 3.3200605043616077e-03 seconds.
Warning: Simulation tolerance relaxed to achieve convergence from 3.3200605043616177e-03 to 3.3200605043616277e-03 seconds.
Warning: Simulation tolerance relaxed to achieve convergence from 3.3200605043616576e-03 to 3.3200605043616676e-03 seconds.
Warning: Simulation tolerance relaxed to achieve convergence from 3.3200605043616875e-03 to 3.3200605043616975e-03 seconds.
Warning: Simulation tolerance relaxed to achieve convergence from 3.3200605043617474e-03 to 3.3200605043617573e-03 seconds.
Warning: Simulation tolerance relaxed to achieve convergence from 3.3200605043617573e-03 to 3.3200605043617673e-03 seconds.
Warning: Simulation tolerance relaxed to achieve convergence from 3.3200605043617673e-03 to 3.3200605043617773e-03 seconds.
Warning: Simulation tolerance relaxed to achieve convergence from 3.3200605043617873e-03 to 3.3200605043617972e-03 seconds.
Warning: Simulation tolerance relaxed to achieve convergence from 3.3200605043618671e-03 to 3.3200605043618770e-03 seconds.
Warning: Simulation tolerance relaxed to achieve convergence from 3.3200605043619070e-03 to 3.3200605043619169e-03 seconds.
Warning: Simulation tolerance relaxed to achieve convergence from 3.3200605043619269e-03 to 3.3200605043619369e-03 seconds.
Warning: Simulation tolerance relaxed to achieve convergence from 3.3200605043619568e-03 to 3.3200605043619668e-03 seconds.
Warning: Simulation tolerance relaxed to achieve convergence from 3.3200605043620067e-03 to 3.3200605043620167e-03 seconds.
Warning: Simulation tolerance relaxed to achieve convergence from 3.3200605043620167e-03 to 3.3200605043620266e-03 seconds.
Warning: Simulation tolerance relaxed to achieve convergence from 3.3200605043620266e-03 to 3.3200605043620366e-03 seconds.
Warning: Simulation tolerance relaxed to achieve convergence from 3.3200605043620665e-03 to 3.3200605043620765e-03 seconds.
Warning: Simulation tolerance relaxed to achieve convergence from 3.3200605043621064e-03 to 3.3200605043621164e-03 seconds.
Warning: Simulation tolerance relaxed to achieve convergence from 3.3200605043621364e-03 to 3.3200605043621463e-03 seconds.
Warning: Simulation tolerance relaxed to achieve convergence from 3.3200605043621463e-03 to 3.3200605043621563e-03 seconds.
Warning: Simulation tolerance relaxed to achieve convergence from 3.3200605043621763e-03 to 3.3200605043621862e-03 seconds.
Warning: Simulation tolerance relaxed to achieve convergence from 3.3200605043621862e-03 to 3.3200605043621962e-03 seconds.
Warning: Simulation tolerance relaxed to achieve convergence from 3.3200605043629062e-03 to 3.3200605043629161e-03 seconds.
Warning: Simulation tolerance relaxed to achieve convergence from 3.3200605043629859e-03 to 3.3200605043629959e-03 seconds.
Warning: Simulation tolerance relaxed to achieve convergence from 3.3200605043636161e-03 to 3.3200605043636261e-03 seconds.
Warning: Simulation tolerance relaxed to achieve convergence from 3.3200605043636560e-03 to 3.3200605043636660e-03 seconds.
Warning: Simulation tolerance relaxed to achieve convergence from 3.3200605043636859e-03 to 3.3200605043636959e-03 seconds.
Warning: Simulation tolerance relaxed to achieve convergence from 3.3200605043636959e-03 to 3.3200605043637059e-03 seconds.
Warning: Simulation tolerance relaxed to achieve convergence from 3.3200605043637158e-03 to 3.3200605043637258e-03 seconds.
Warning: Simulation tolerance relaxed to achieve convergence from 3.3200605043637258e-03 to 3.3200605043637358e-03 seconds.
Warning: Simulation tolerance relaxed to achieve convergence from 3.3200605043637657e-03 to 3.3200605043637757e-03 seconds.
Warning: Simulation tolerance relaxed to achieve convergence from 3.3200605043637757e-03 to 3.3200605043637857e-03 seconds.
Warning: Simulation tolerance relaxed to achieve convergence from 3.3200605043637857e-03 to 3.3200605043637956e-03 seconds.
Warning: Simulation tolerance relaxed to achieve convergence from 3.3200605043638355e-03 to 3.3200605043638455e-03 seconds.
Warning: Simulation tolerance relaxed to achieve convergence from 3.3200605043638655e-03 to 3.3200605043638754e-03 seconds.
Warning: Simulation tolerance relaxed to achieve convergence from 3.3200605043638754e-03 to 3.3200605043638854e-03 seconds.
Warning: Simulation tolerance relaxed to achieve convergence from 3.3200605043639054e-03 to 3.3200605043639153e-03 seconds.
Warning: Simulation tolerance relaxed to achieve convergence from 3.3200605043640853e-03 to 3.3200605043640953e-03 seconds.
Warning: Simulation tolerance relaxed to achieve convergence from 3.3200605043640953e-03 to 3.3200605043641053e-03 seconds.
Warning: Simulation tolerance relaxed to achieve convergence from 3.3200605043641252e-03 to 3.3200605043641352e-03 seconds.
Warning: Simulation tolerance relaxed to achieve convergence from 3.3200605043641352e-03 to 3.3200605043641452e-03 seconds.
Warning: Simulation tolerance relaxed to achieve convergence from 3.3200605043644553e-03 to 3.3200605043644652e-03 seconds.
Warning: Simulation tolerance relaxed to achieve convergence from 3.3200605043644652e-03 to 3.3200605043644752e-03 seconds.
Warning: Simulation tolerance relaxed to achieve convergence from 3.3200605043644752e-03 to 3.3200605043644852e-03 seconds.
Warning: Simulation tolerance relaxed to achieve convergence from 3.3200605043645151e-03 to 3.3200605043645251e-03 seconds.
Warning: Simulation tolerance relaxed to achieve convergence from 3.3200605043645351e-03 to 3.3200605043645450e-03 seconds.
Warning: Simulation tolerance relaxed to achieve convergence from 3.3200605043645450e-03 to 3.3200605043645550e-03 seconds.
Warning: Simulation tolerance relaxed to achieve convergence from 3.3200605043645550e-03 to 3.3200605043645650e-03 seconds.
Warning: Simulation tolerance relaxed to achieve convergence from 3.3200605043645650e-03 to 3.3200605043645750e-03 seconds.
Warning: Simulation tolerance relaxed to achieve convergence from 3.3200605043645750e-03 to 3.3200605043645849e-03 seconds.
Warning: Simulation tolerance relaxed to achieve convergence from 3.3200605043645849e-03 to 3.3200605043645949e-03 seconds.
Warning: Simulation tolerance relaxed to achieve convergence from 3.3200605043645949e-03 to 3.3200605043646049e-03 seconds.
Warning: Simulation tolerance relaxed to achieve convergence from 3.3200605043646049e-03 to 3.3200605043646149e-03 seconds.
Warning: Simulation tolerance relaxed to achieve convergence from 3.3200605043646149e-03 to 3.3200605043646248e-03 seconds.
Warning: Simulation tolerance relaxed to achieve convergence from 3.3200605043646248e-03 to 3.3200605043646348e-03 seconds.
Warning: Simulation tolerance relaxed to achieve convergence from 3.3200605043646348e-03 to 3.3200605043646448e-03 seconds.
Warning: Simulation tolerance relaxed to achieve convergence from 3.3200605043646448e-03 to 3.3200605043646548e-03 seconds.
Warning: Simulation tolerance relaxed to achieve convergence from 3.3200605043646947e-03 to 3.3200605043647046e-03 seconds.
Warning: Simulation tolerance relaxed to achieve convergence from 3.3200605043648746e-03 to 3.3200605043648846e-03 seconds.
Warning: Simulation tolerance relaxed to achieve convergence from 3.3200605043649046e-03 to 3.3200605043649145e-03 seconds.
Warning: Simulation tolerance relaxed to achieve convergence from 3.3200605043649145e-03 to 3.3200605043649245e-03 seconds.
Warning: Simulation tolerance relaxed to achieve convergence from 3.3200605043649245e-03 to 3.3200605043649345e-03 seconds.
Warning: Simulation tolerance relaxed to achieve convergence from 3.3200605043649844e-03 to 3.3200605043649943e-03 seconds.
Warning: Simulation tolerance relaxed to achieve convergence from 3.3200605043649943e-03 to 3.3200605043650043e-03 seconds.
Warning: Simulation tolerance relaxed to achieve convergence from 3.3200605043650741e-03 to 3.3200605043650841e-03 seconds.
Warning: Simulation tolerance relaxed to achieve convergence from 3.3200605043651140e-03 to 3.3200605043651240e-03 seconds.
Warning: Simulation tolerance relaxed to achieve convergence from 3.3200605043652641e-03 to 3.3200605043652740e-03 seconds.
Warning: Simulation tolerance relaxed to achieve convergence from 3.3200605043652840e-03 to 3.3200605043652940e-03 seconds.
Warning: Simulation tolerance relaxed to achieve convergence from 3.3200605043653638e-03 to 3.3200605043653738e-03 seconds.
Warning: Simulation tolerance relaxed to achieve convergence from 3.3200605043653738e-03 to 3.3200605043653838e-03 seconds.
Warning: Simulation tolerance relaxed to achieve convergence from 3.3200605043658738e-03 to 3.3200605043658838e-03 seconds.
Warning: Simulation tolerance relaxed to achieve convergence from 3.3200605043659337e-03 to 3.3200605043659437e-03 seconds.
Warning: Simulation tolerance relaxed to achieve convergence from 3.3200605043659437e-03 to 3.3200605043659536e-03 seconds.
Warning: Simulation tolerance relaxed to achieve convergence from 3.3200605043659536e-03 to 3.3200605043659636e-03 seconds.
Warning: Simulation tolerance relaxed to achieve convergence from 3.3200605043660933e-03 to 3.3200605043661032e-03 seconds.
Warning: Simulation tolerance relaxed to achieve convergence from 3.3200605043661132e-03 to 3.3200605043661232e-03 seconds.
Warning: Simulation tolerance relaxed to achieve convergence from 3.3200605043663127e-03 to 3.3200605043663227e-03 seconds.
Warning: Simulation tolerance relaxed to achieve convergence from 3.3200605043663526e-03 to 3.3200605043663626e-03 seconds.
Warning: Simulation tolerance relaxed to achieve convergence from 3.3200605043665426e-03 to 3.3200605043665525e-03 seconds.
Warning: Simulation tolerance relaxed to achieve convergence from 3.3200605043665625e-03 to 3.3200605043665725e-03 seconds.
Warning: Simulation tolerance relaxed to achieve convergence from 3.3200605043667022e-03 to 3.3200605043667121e-03 seconds.
Warning: Simulation tolerance relaxed to achieve convergence from 3.3200605043667321e-03 to 3.3200605043667421e-03 seconds.
Warning: Simulation tolerance relaxed to achieve convergence from 3.3200605043667620e-03 to 3.3200605043667720e-03 seconds.
Warning: Simulation tolerance relaxed to achieve convergence from 3.3200605043667919e-03 to 3.3200605043668019e-03 seconds.
Warning: Simulation tolerance relaxed to achieve convergence from 3.3200605043668418e-03 to 3.3200605043668518e-03 seconds.
Warning: Simulation tolerance relaxed to achieve convergence from 3.3200605043669316e-03 to 3.3200605043669416e-03 seconds.
Warning: Simulation tolerance relaxed to achieve convergence from 3.3200605043669416e-03 to 3.3200605043669515e-03 seconds.
Warning: Simulation tolerance relaxed to achieve convergence from 3.3200605043669615e-03 to 3.3200605043669715e-03 seconds.
Warning: Simulation tolerance relaxed to achieve convergence from 3.3200605043670313e-03 to 3.3200605043670413e-03 seconds.
Warning: Simulation tolerance relaxed to achieve convergence from 3.3200605043670413e-03 to 3.3200605043670513e-03 seconds.
Warning: Simulation tolerance relaxed to achieve convergence from 3.3200605043670513e-03 to 3.3200605043670612e-03 seconds.
Warning: Simulation tolerance relaxed to achieve convergence from 3.3200605043670912e-03 to 3.3200605043671011e-03 seconds.
Warning: Simulation tolerance relaxed to achieve convergence from 3.3200605043671011e-03 to 3.3200605043671111e-03 seconds.
Warning: Simulation tolerance relaxed to achieve convergence from 3.3200605043671111e-03 to 3.3200605043671211e-03 seconds.
Warning: Simulation tolerance relaxed to achieve convergence from 3.3200605043671410e-03 to 3.3200605043671510e-03 seconds.
Warning: Simulation tolerance relaxed to achieve convergence from 3.3200605043671510e-03 to 3.3200605043671610e-03 seconds.
Warning: Simulation tolerance relaxed to achieve convergence from 3.3200605043671610e-03 to 3.3200605043671710e-03 seconds.
Warning: Simulation tolerance relaxed to achieve convergence from 3.3200605043671909e-03 to 3.3200605043672009e-03 seconds.
Warning: Simulation tolerance relaxed to achieve convergence from 3.3200605043672308e-03 to 3.3200605043672408e-03 seconds.
Warning: Simulation tolerance relaxed to achieve convergence from 3.3200605043672907e-03 to 3.3200605043673006e-03 seconds.
Warning: Simulation tolerance relaxed to achieve convergence from 3.3200605043673306e-03 to 3.3200605043673405e-03 seconds.
Warning: Simulation tolerance relaxed to achieve convergence from 3.3200605043673605e-03 to 3.3200605043673705e-03 seconds.
Warning: Simulation tolerance relaxed to achieve convergence from 3.3200605043675101e-03 to 3.3200605043675201e-03 seconds.
Warning: Simulation tolerance relaxed to achieve convergence from 3.3200605043675400e-03 to 3.3200605043675500e-03 seconds.
Warning: Simulation tolerance relaxed to achieve convergence from 3.3200605043681702e-03 to 3.3200605043681801e-03 seconds.
Warning: Simulation tolerance relaxed to achieve convergence from 3.3200605043681901e-03 to 3.3200605043682001e-03 seconds.
Warning: Simulation tolerance relaxed to achieve convergence from 3.3200605043682699e-03 to 3.3200605043682799e-03 seconds.
Warning: Simulation tolerance relaxed to achieve convergence from 3.3200605043682799e-03 to 3.3200605043682899e-03 seconds.
Warning: Simulation tolerance relaxed to achieve convergence from 3.3200605043683896e-03 to 3.3200605043683996e-03 seconds.
Warning: Simulation tolerance relaxed to achieve convergence from 3.3200605043683996e-03 to 3.3200605043684096e-03 seconds.
Warning: Simulation tolerance relaxed to achieve convergence from 3.3200605043684096e-03 to 3.3200605043684195e-03 seconds.
Warning: Simulation tolerance relaxed to achieve convergence from 3.3200605043685193e-03 to 3.3200605043685293e-03 seconds.
Warning: Simulation tolerance relaxed to achieve convergence from 3.3200605043685492e-03 to 3.3200605043685592e-03 seconds.
Warning: Simulation tolerance relaxed to achieve convergence from 3.3200605043686689e-03 to 3.3200605043686789e-03 seconds.
Warning: Simulation tolerance relaxed to achieve convergence from 3.3200605043687387e-03 to 3.3200605043687487e-03 seconds.
Warning: Simulation tolerance relaxed to achieve convergence from 3.3200605043687487e-03 to 3.3200605043687587e-03 seconds.
Warning: Simulation tolerance relaxed to achieve convergence from 3.3200605043688285e-03 to 3.3200605043688385e-03 seconds.
Warning: Simulation tolerance relaxed to achieve convergence from 3.3200605043689885e-03 to 3.3200605043689985e-03 seconds.
Warning: Simulation tolerance relaxed to achieve convergence from 3.3200605043690085e-03 to 3.3200605043690185e-03 seconds.
Warning: Simulation tolerance relaxed to achieve convergence from 3.3200605043690284e-03 to 3.3200605043690384e-03 seconds.
Warning: Simulation tolerance relaxed to achieve convergence from 3.3200605043690883e-03 to 3.3200605043690982e-03 seconds.
Warning: Simulation tolerance relaxed to achieve convergence from 3.3200605043691182e-03 to 3.3200605043691282e-03 seconds.
Warning: Simulation tolerance relaxed to achieve convergence from 3.3200605043691481e-03 to 3.3200605043691581e-03 seconds.
Warning: Simulation tolerance relaxed to achieve convergence from 3.3200605043691581e-03 to 3.3200605043691681e-03 seconds.
Warning: Simulation tolerance relaxed to achieve convergence from 3.3200605043692578e-03 to 3.3200605043692678e-03 seconds.
Warning: Simulation tolerance relaxed to achieve convergence from 3.3200605043692678e-03 to 3.3200605043692778e-03 seconds.
Warning: Simulation tolerance relaxed to achieve convergence from 3.3200605043693576e-03 to 3.3200605043693676e-03 seconds.
Warning: Simulation tolerance relaxed to achieve convergence from 3.3200605043694474e-03 to 3.3200605043694573e-03 seconds.
Warning: Simulation tolerance relaxed to achieve convergence from 3.3200605043694673e-03 to 3.3200605043694773e-03 seconds.
Warning: Simulation tolerance relaxed to achieve convergence from 3.3200605043694773e-03 to 3.3200605043694873e-03 seconds.
Warning: Simulation tolerance relaxed to achieve convergence from 3.3200605043698273e-03 to 3.3200605043698372e-03 seconds.
Warning: Simulation tolerance relaxed to achieve convergence from 3.3200605043699270e-03 to 3.3200605043699370e-03 seconds.
Warning: Simulation tolerance relaxed to achieve convergence from 3.3200605043699370e-03 to 3.3200605043699470e-03 seconds.
Warning: Simulation tolerance relaxed to achieve convergence from 3.3200605043699569e-03 to 3.3200605043699669e-03 seconds.
Warning: Simulation tolerance relaxed to achieve convergence from 3.3200605043699769e-03 to 3.3200605043699869e-03 seconds.
Warning: Simulation tolerance relaxed to achieve convergence from 3.3200605043700667e-03 to 3.3200605043700766e-03 seconds.
Warning: Simulation tolerance relaxed to achieve convergence from 3.3200605043700966e-03 to 3.3200605043701066e-03 seconds.
Warning: Simulation tolerance relaxed to achieve convergence from 3.3200605043798618e-03 to 3.3200605043798717e-03 seconds.
Warning: Simulation tolerance relaxed to achieve convergence from 3.3200605043798817e-03 to 3.3200605043798917e-03 seconds.
Warning: Simulation tolerance relaxed to achieve convergence from 3.3200605043799116e-03 to 3.3200605043799216e-03 seconds.
Warning: Simulation tolerance relaxed to achieve convergence from 3.3200605043799914e-03 to 3.3200605043800014e-03 seconds.
Warning: Simulation tolerance relaxed to achieve convergence from 3.3200605043802412e-03 to 3.3200605043802512e-03 seconds.
Warning: Simulation tolerance relaxed to achieve convergence from 3.3200605043802512e-03 to 3.3200605043802612e-03 seconds.
Warning: Simulation tolerance relaxed to achieve convergence from 3.3200605043802811e-03 to 3.3200605043802911e-03 seconds.
Warning: Simulation tolerance relaxed to achieve convergence from 3.3200605043803609e-03 to 3.3200605043803709e-03 seconds.
Warning: Simulation tolerance relaxed to achieve convergence from 3.3200605043803909e-03 to 3.3200605043804008e-03 seconds.
Warning: Simulation tolerance relaxed to achieve convergence from 3.3200605043804008e-03 to 3.3200605043804108e-03 seconds.
[...]
Warning: Simulation tolerance relaxed to achieve convergence from 3.5624110967846546e-03 to 3.5624110967846646e-03 seconds.
Warning: Simulation tolerance relaxed to achieve convergence from 3.5624110967846945e-03 to 3.5624110967847045e-03 seconds.
Warning: Simulation tolerance relaxed to achieve convergence from 3.5624110967847045e-03 to 3.5624110967847145e-03 seconds.
Warning: Simulation tolerance relaxed to achieve convergence from 3.5624110967847145e-03 to 3.5624110967847245e-03 seconds.
Warning: Simulation tolerance relaxed to achieve convergence from 3.5624110967847245e-03 to 3.5624110967847344e-03 seconds.
Warning: Simulation tolerance relaxed to achieve convergence from 3.5624110967847344e-03 to 3.5624110967847444e-03 seconds.
Warning: Simulation tolerance relaxed to achieve convergence from 3.5624110967847544e-03 to 3.5624110967847644e-03 seconds.
Warning: Simulation tolerance relaxed to achieve convergence from 3.5624110967847644e-03 to 3.5624110967847743e-03 seconds.
Warning: Simulation tolerance relaxed to achieve convergence from 3.5624110967849344e-03 to 3.5624110967849443e-03 seconds.
Warning: Simulation tolerance relaxed to achieve convergence from 3.5624110967862051e-03 to 3.5624110967862150e-03 seconds.
Warning: Simulation tolerance relaxed to achieve convergence from 3.5624110967862450e-03 to 3.5624110967862549e-03 seconds.
Warning: Simulation tolerance relaxed to achieve convergence from 3.5624110967862549e-03 to 3.5624110967862649e-03 seconds.
Warning: Simulation tolerance relaxed to achieve convergence from 3.5624110967866049e-03 to 3.5624110967866149e-03 seconds.
Warning: Simulation tolerance relaxed to achieve convergence from 3.5624110967866149e-03 to 3.5624110967866249e-03 seconds.
Warning: Simulation tolerance relaxed to achieve convergence from 3.5624110967866249e-03 to 3.5624110967866348e-03 seconds.
Warning: Simulation tolerance relaxed to achieve convergence from 3.5624110967866348e-03 to 3.5624110967866448e-03 seconds.
Warning: Simulation tolerance relaxed to achieve convergence from 3.5624110967866648e-03 to 3.5624110967866747e-03 seconds.
Warning: Simulation tolerance relaxed to achieve convergence from 3.5624110967866747e-03 to 3.5624110967866847e-03 seconds.
Warning: Simulation tolerance relaxed to achieve convergence from 3.5624110967869046e-03 to 3.5624110967869146e-03 seconds.
Warning: Simulation tolerance relaxed to achieve convergence from 3.5624110967869146e-03 to 3.5624110967869245e-03 seconds.
Warning: Simulation tolerance relaxed to achieve convergence from 3.5624110967869245e-03 to 3.5624110967869345e-03 seconds.
Warning: Simulation tolerance relaxed to achieve convergence from 3.5624110967869345e-03 to 3.5624110967869445e-03 seconds.
Warning: Simulation tolerance relaxed to achieve convergence from 3.5624110967870043e-03 to 3.5624110967870143e-03 seconds.
Warning: Simulation tolerance relaxed to achieve convergence from 3.5624110967870442e-03 to 3.5624110967870542e-03 seconds.
Warning: Simulation tolerance relaxed to achieve convergence from 3.5624110967870542e-03 to 3.5624110967870642e-03 seconds.
Warning: Simulation tolerance relaxed to achieve convergence from 3.5624110967879445e-03 to 3.5624110967879545e-03 seconds.
Warning: Simulation tolerance relaxed to achieve convergence from 3.5624110967879545e-03 to 3.5624110967879645e-03 seconds.
Warning: Simulation tolerance relaxed to achieve convergence from 3.5624110967879944e-03 to 3.5624110967880044e-03 seconds.
Warning: Simulation tolerance relaxed to achieve convergence from 3.5624110967880044e-03 to 3.5624110967880144e-03 seconds.
Warning: Simulation tolerance relaxed to achieve convergence from 3.5624110967880144e-03 to 3.5624110967880243e-03 seconds.
Warning: Simulation tolerance relaxed to achieve convergence from 3.5624110967880243e-03 to 3.5624110967880343e-03 seconds.
Warning: Simulation tolerance relaxed to achieve convergence from 3.5624110967880543e-03 to 3.5624110967880642e-03 seconds.
Warning: Simulation tolerance relaxed to achieve convergence from 3.5624110967880642e-03 to 3.5624110967880742e-03 seconds.
Warning: Simulation tolerance relaxed to achieve convergence from 3.5624110967880742e-03 to 3.5624110967880842e-03 seconds.
Warning: Simulation tolerance relaxed to achieve convergence from 3.5624110967880842e-03 to 3.5624110967880942e-03 seconds.
Warning: Simulation tolerance relaxed to achieve convergence from 3.5624110967880942e-03 to 3.5624110967881041e-03 seconds.
Warning: Simulation tolerance relaxed to achieve convergence from 3.5624110967881241e-03 to 3.5624110967881341e-03 seconds.
Warning: Simulation tolerance relaxed to achieve convergence from 3.5624110967881640e-03 to 3.5624110967881740e-03 seconds.
Warning: Simulation tolerance relaxed to achieve convergence from 3.5624110967881939e-03 to 3.5624110967882039e-03 seconds.
Warning: Simulation tolerance relaxed to achieve convergence from 3.5624110967885040e-03 to 3.5624110967885140e-03 seconds.
Warning: Simulation tolerance relaxed to achieve convergence from 3.5624110967885239e-03 to 3.5624110967885339e-03 seconds.
Warning: Simulation tolerance relaxed to achieve convergence from 3.5624110967885539e-03 to 3.5624110967885638e-03 seconds.
Warning: Simulation tolerance relaxed to achieve convergence from 3.5624110967885638e-03 to 3.5624110967885738e-03 seconds.
Warning: Simulation tolerance relaxed to achieve convergence from 3.5624110967885938e-03 to 3.5624110967886037e-03 seconds.
Warning: Simulation tolerance relaxed to achieve convergence from 3.5624110967886037e-03 to 3.5624110967886137e-03 seconds.
Warning: Simulation tolerance relaxed to achieve convergence from 3.5624110967886137e-03 to 3.5624110967886237e-03 seconds.
Warning: Simulation tolerance relaxed to achieve convergence from 3.5624110967886237e-03 to 3.5624110967886337e-03 seconds.
Warning: Simulation tolerance relaxed to achieve convergence from 3.5624110967886337e-03 to 3.5624110967886436e-03 seconds.
Warning: Simulation tolerance relaxed to achieve convergence from 3.5624110967886536e-03 to 3.5624110967886636e-03 seconds.
Warning: Simulation tolerance relaxed to achieve convergence from 3.5624110967886636e-03 to 3.5624110967886736e-03 seconds.
Warning: Simulation tolerance relaxed to achieve convergence from 3.5624110967887334e-03 to 3.5624110967887434e-03 seconds.
Warning: Simulation tolerance relaxed to achieve convergence from 3.5624110967887633e-03 to 3.5624110967887733e-03 seconds.
Warning: Simulation tolerance relaxed to achieve convergence from 3.5624110967887733e-03 to 3.5624110967887833e-03 seconds.
Warning: Simulation tolerance relaxed to achieve convergence from 3.5624110967888431e-03 to 3.5624110967888531e-03 seconds.
Warning: Simulation tolerance relaxed to achieve convergence from 3.5624110967888731e-03 to 3.5624110967888830e-03 seconds.
Warning: Simulation tolerance relaxed to achieve convergence from 3.5624110967888830e-03 to 3.5624110967888930e-03 seconds.
Warning: Simulation tolerance relaxed to achieve convergence from 3.5624110967889130e-03 to 3.5624110967889229e-03 seconds.
Warning: Simulation tolerance relaxed to achieve convergence from 3.5624110967890327e-03 to 3.5624110967890426e-03 seconds.
Warning: Simulation tolerance relaxed to achieve convergence from 3.5624110967890626e-03 to 3.5624110967890726e-03 seconds.
Warning: Simulation tolerance relaxed to achieve convergence from 3.5624110967890726e-03 to 3.5624110967890825e-03 seconds.
Warning: Simulation tolerance relaxed to achieve convergence from 3.5624110967890825e-03 to 3.5624110967890925e-03 seconds.
Warning: Simulation tolerance relaxed to achieve convergence from 3.5624110967890925e-03 to 3.5624110967891025e-03 seconds.
Warning: Simulation tolerance relaxed to achieve convergence from 3.5624110967891524e-03 to 3.5624110967891623e-03 seconds.
Warning: Simulation tolerance relaxed to achieve convergence from 3.5624110967891623e-03 to 3.5624110967891723e-03 seconds.
Warning: Simulation tolerance relaxed to achieve convergence from 3.5624110967894724e-03 to 3.5624110967894824e-03 seconds.
Warning: Simulation tolerance relaxed to achieve convergence from 3.5624110967895023e-03 to 3.5624110967895123e-03 seconds.
Warning: Simulation tolerance relaxed to achieve convergence from 3.5624110967895722e-03 to 3.5624110967895821e-03 seconds.
Warning: Simulation tolerance relaxed to achieve convergence from 3.5624110967895921e-03 to 3.5624110967896021e-03 seconds.
Warning: Simulation tolerance relaxed to achieve convergence from 3.5624110967896021e-03 to 3.5624110967896121e-03 seconds.
Warning: Simulation tolerance relaxed to achieve convergence from 3.5624110967896121e-03 to 3.5624110967896220e-03 seconds.
Warning: Simulation tolerance relaxed to achieve convergence from 3.5624110967896220e-03 to 3.5624110967896320e-03 seconds.
Warning: Simulation tolerance relaxed to achieve convergence from 3.5624110967896320e-03 to 3.5624110967896420e-03 seconds.
Warning: Simulation tolerance relaxed to achieve convergence from 3.5624110967896420e-03 to 3.5624110967896520e-03 seconds.
Warning: Simulation tolerance relaxed to achieve convergence from 3.5624110967896520e-03 to 3.5624110967896619e-03 seconds.
Warning: Simulation tolerance relaxed to achieve convergence from 3.5624110967896619e-03 to 3.5624110967896719e-03 seconds.
Warning: Simulation tolerance relaxed to achieve convergence from 3.5624110967896719e-03 to 3.5624110967896819e-03 seconds.
Warning: Simulation tolerance relaxed to achieve convergence from 3.5624110967897118e-03 to 3.5624110967897218e-03 seconds.
Warning: Simulation tolerance relaxed to achieve convergence from 3.5624110967897816e-03 to 3.5624110967897916e-03 seconds.
Warning: Simulation tolerance relaxed to achieve convergence from 3.5624110967897916e-03 to 3.5624110967898016e-03 seconds.
Warning: Simulation tolerance relaxed to achieve convergence from 3.5624110967898215e-03 to 3.5624110967898315e-03 seconds.
Warning: Simulation tolerance relaxed to achieve convergence from 3.5624110967898315e-03 to 3.5624110967898415e-03 seconds.
Warning: Simulation tolerance relaxed to achieve convergence from 3.5624110967898415e-03 to 3.5624110967898514e-03 seconds.
Warning: Simulation tolerance relaxed to achieve convergence from 3.5624110967898714e-03 to 3.5624110967898814e-03 seconds.
Warning: Simulation tolerance relaxed to achieve convergence from 3.5624110967899412e-03 to 3.5624110967899512e-03 seconds.
Warning: Simulation tolerance relaxed to achieve convergence from 3.5624110967900509e-03 to 3.5624110967900609e-03 seconds.
Warning: Simulation tolerance relaxed to achieve convergence from 3.5624110967900609e-03 to 3.5624110967900709e-03 seconds.
Warning: Simulation tolerance relaxed to achieve convergence from 3.5624110967901407e-03 to 3.5624110967901507e-03 seconds.
Warning: Simulation tolerance relaxed to achieve convergence from 3.5624110967901507e-03 to 3.5624110967901607e-03 seconds.
Warning: Simulation tolerance relaxed to achieve convergence from 3.5624110967901607e-03 to 3.5624110967901706e-03 seconds.
Warning: Simulation tolerance relaxed to achieve convergence from 3.5624110967901706e-03 to 3.5624110967901806e-03 seconds.
Warning: Simulation tolerance relaxed to achieve convergence from 3.5624110967901806e-03 to 3.5624110967901906e-03 seconds.
Warning: Simulation tolerance relaxed to achieve convergence from 3.5624110967901906e-03 to 3.5624110967902006e-03 seconds.
Warning: Simulation tolerance relaxed to achieve convergence from 3.5624110967902006e-03 to 3.5624110967902105e-03 seconds.
Warning: Simulation tolerance relaxed to achieve convergence from 3.5624110967909807e-03 to 3.5624110967909907e-03 seconds.
Warning: Simulation tolerance relaxed to achieve convergence from 3.5624110967909907e-03 to 3.5624110967910007e-03 seconds.
Warning: Simulation tolerance relaxed to achieve convergence from 3.5624110967910007e-03 to 3.5624110967910107e-03 seconds.
Warning: Simulation tolerance relaxed to achieve convergence from 3.5624110967910107e-03 to 3.5624110967910206e-03 seconds.
Warning: Simulation tolerance relaxed to achieve convergence from 3.5624110967911607e-03 to 3.5624110967911707e-03 seconds.
Warning: Simulation tolerance relaxed to achieve convergence from 3.5624110967911707e-03 to 3.5624110967911807e-03 seconds.
Warning: Simulation tolerance relaxed to achieve convergence from 3.5624110967911807e-03 to 3.5624110967911907e-03 seconds.
Warning: Simulation tolerance relaxed to achieve convergence from 3.5624110967911907e-03 to 3.5624110967912006e-03 seconds.
Warning: Simulation tolerance relaxed to achieve convergence from 3.5624110967912006e-03 to 3.5624110967912106e-03 seconds.
Warning: Simulation tolerance relaxed to achieve convergence from 3.5624110967912704e-03 to 3.5624110967912804e-03 seconds.
Warning: Simulation tolerance relaxed to achieve convergence from 3.5624110967913403e-03 to 3.5624110967913502e-03 seconds.
Warning: Simulation tolerance relaxed to achieve convergence from 3.5624110967914101e-03 to 3.5624110967914201e-03 seconds.
Warning: Simulation tolerance relaxed to achieve convergence from 3.5624110967914201e-03 to 3.5624110967914300e-03 seconds.
Warning: Simulation tolerance relaxed to achieve convergence from 3.5624110967914400e-03 to 3.5624110967914500e-03 seconds.
Warning: Simulation tolerance relaxed to achieve convergence from 3.5624110967914999e-03 to 3.5624110967915098e-03 seconds.
Warning: Simulation tolerance relaxed to achieve convergence from 3.5624110967915198e-03 to 3.5624110967915298e-03 seconds.
Warning: Simulation tolerance relaxed to achieve convergence from 3.5624110967915298e-03 to 3.5624110967915398e-03 seconds.
Warning: Simulation tolerance relaxed to achieve convergence from 3.5624110967915398e-03 to 3.5624110967915497e-03 seconds.
Warning: Simulation tolerance relaxed to achieve convergence from 3.5624110967915697e-03 to 3.5624110967915797e-03 seconds.
Warning: Simulation tolerance relaxed to achieve convergence from 3.5624110967916196e-03 to 3.5624110967916295e-03 seconds.
Warning: Simulation tolerance relaxed to achieve convergence from 3.5624110967916595e-03 to 3.5624110967916694e-03 seconds.
Warning: Simulation tolerance relaxed to achieve convergence from 3.5624110967918095e-03 to 3.5624110967918195e-03 seconds.
Warning: Simulation tolerance relaxed to achieve convergence from 3.5624110967918195e-03 to 3.5624110967918295e-03 seconds.
Warning: Simulation tolerance relaxed to achieve convergence from 3.5624110967918594e-03 to 3.5624110967918694e-03 seconds.
Warning: Simulation tolerance relaxed to achieve convergence from 3.5624110967918694e-03 to 3.5624110967918793e-03 seconds.
Warning: Simulation tolerance relaxed to achieve convergence from 3.5624110967918893e-03 to 3.5624110967918993e-03 seconds.
Warning: Simulation tolerance relaxed to achieve convergence from 3.5624110967918993e-03 to 3.5624110967919093e-03 seconds.
Warning: Simulation tolerance relaxed to achieve convergence from 3.5624110967919192e-03 to 3.5624110967919292e-03 seconds.
Warning: Simulation tolerance relaxed to achieve convergence from 3.5624110967919492e-03 to 3.5624110967919591e-03 seconds.
Warning: Simulation tolerance relaxed to achieve convergence from 3.5624110967919591e-03 to 3.5624110967919691e-03 seconds.
Warning: Simulation tolerance relaxed to achieve convergence from 3.5624110967919990e-03 to 3.5624110967920090e-03 seconds.
Warning: Simulation tolerance relaxed to achieve convergence from 3.5624110967920090e-03 to 3.5624110967920190e-03 seconds.
Warning: Simulation tolerance relaxed to achieve convergence from 3.5624110967920888e-03 to 3.5624110967920988e-03 seconds.
Warning: Simulation tolerance relaxed to achieve convergence from 3.5624110967920988e-03 to 3.5624110967921088e-03 seconds.
Warning: Simulation tolerance relaxed to achieve convergence from 3.5624110967921088e-03 to 3.5624110967921187e-03 seconds.
Warning: Simulation tolerance relaxed to achieve convergence from 3.5624110967921287e-03 to 3.5624110967921387e-03 seconds.
Warning: Simulation tolerance relaxed to achieve convergence from 3.5624110967921686e-03 to 3.5624110967921786e-03 seconds.
Warning: Simulation tolerance relaxed to achieve convergence from 3.5624110967921786e-03 to 3.5624110967921886e-03 seconds.
Warning: Simulation tolerance relaxed to achieve convergence from 3.5624110967921886e-03 to 3.5624110967921985e-03 seconds.
Warning: Simulation tolerance relaxed to achieve convergence from 3.5624110967921985e-03 to 3.5624110967922085e-03 seconds.
Warning: Simulation tolerance relaxed to achieve convergence from 3.5624110967922983e-03 to 3.5624110967923082e-03 seconds.
Warning: Simulation tolerance relaxed to achieve convergence from 3.5624110967923382e-03 to 3.5624110967923481e-03 seconds.
Warning: Simulation tolerance relaxed to achieve convergence from 3.5624110967923481e-03 to 3.5624110967923581e-03 seconds.
Warning: Simulation tolerance relaxed to achieve convergence from 3.5624110967923581e-03 to 3.5624110967923681e-03 seconds.
Warning: Simulation tolerance relaxed to achieve convergence from 3.5624110967924379e-03 to 3.5624110967924479e-03 seconds.
Warning: Simulation tolerance relaxed to achieve convergence from 3.5624110967924678e-03 to 3.5624110967924778e-03 seconds.
Warning: Simulation tolerance relaxed to achieve convergence from 3.5624110967925077e-03 to 3.5624110967925177e-03 seconds.
Warning: Simulation tolerance relaxed to achieve convergence from 3.5624110967925177e-03 to 3.5624110967925277e-03 seconds.
Warning: Simulation tolerance relaxed to achieve convergence from 3.5624110967925476e-03 to 3.5624110967925576e-03 seconds.
Warning: Simulation tolerance relaxed to achieve convergence from 3.5624110967925576e-03 to 3.5624110967925676e-03 seconds.
Warning: Simulation tolerance relaxed to achieve convergence from 3.5624110967925676e-03 to 3.5624110967925776e-03 seconds.
Warning: Simulation tolerance relaxed to achieve convergence from 3.5624110967925776e-03 to 3.5624110967925875e-03 seconds.
Warning: Simulation tolerance relaxed to achieve convergence from 3.5624110967925875e-03 to 3.5624110967925975e-03 seconds.
Warning: Simulation tolerance relaxed to achieve convergence from 3.5624110967926175e-03 to 3.5624110967926274e-03 seconds.
Warning: Simulation tolerance relaxed to achieve convergence from 3.5624110967926374e-03 to 3.5624110967926474e-03 seconds.
Warning: Simulation tolerance relaxed to achieve convergence from 3.5624110967929774e-03 to 3.5624110967929874e-03 seconds.
Warning: Simulation tolerance relaxed to achieve convergence from 3.5624110967930472e-03 to 3.5624110967930572e-03 seconds.
Warning: Simulation tolerance relaxed to achieve convergence from 3.5624110967931071e-03 to 3.5624110967931171e-03 seconds.
Warning: Simulation tolerance relaxed to achieve convergence from 3.5624110967931171e-03 to 3.5624110967931270e-03 seconds.
Warning: Simulation tolerance relaxed to achieve convergence from 3.5624110967931370e-03 to 3.5624110967931470e-03 seconds.
Warning: Simulation tolerance relaxed to achieve convergence from 3.5624110967931470e-03 to 3.5624110967931570e-03 seconds.
Warning: Simulation tolerance relaxed to achieve convergence from 3.5624110967931669e-03 to 3.5624110967931769e-03 seconds.
Total elapsed time: 198.531 seconds.

Files loaded:
C:\Users\Gonzalo\Documents\GitHub\Circuitos II\1CTDC\CP5_buck_pwm\Buck y PWM\intento6_error.net
C:\Users\Gonzalo\AppData\Local\LTspice\lib\cmp\standard.dio
C:\Users\Gonzalo\AppData\Local\LTspice\lib\cmp\standard.mos
C:\Users\Gonzalo\Documents\GitHub\Circuitos II\1CTDC\CP5_buck_pwm\Buck y PWM\LM393.5_1
C:\Users\Gonzalo\Documents\GitHub\Circuitos II\1CTDC\CP5_buck_pwm\Buck y PWM\LM324.mod
C:\Users\Gonzalo\AppData\Local\LTspice\lib\sub\ADI.lib
C:\Users\Gonzalo\Documents\GitHub\Circuitos II\1CTDC\CP5_buck_pwm\Buck y PWM\IR2104.lib
C:\Users\Gonzalo\Documents\GitHub\Circuitos II\1CTDC\CP5_buck_pwm\Buck y PWM\TL431.mod

