LTspice 24.1.7 for Windows
Circuit: C:\Users\Gonzalo\Documents\GitHub\Circuitos II\1CTDC\CP5_buck_pwm\Buck y PWM\intento6_error.net
Start Time: Wed Jun 25 15:22:14 2025
Options: gmin=1e-11  abstol=1e-10  reltol=0.006  cshunt=1e-15
solver = Normal
Maximum thread count: 12
tnom = 27
temp = 27
method = modified trap
gmin = 1e-11
abstol = 1e-10
reltol = 0.006
Instance "u1:x_gd_template:x_ho_stage:M_HO_PMOS": Length shorter than recommended for a level 1 MOSFET.
Instance "u1:x_gd_template:x_ho_stage:M_HO_NMOS": Length shorter than recommended for a level 1 MOSFET.
Instance "u1:x_gd_template:x_lo_stage:M_LO_PMOS": Length shorter than recommended for a level 1 MOSFET.
Instance "u1:x_gd_template:x_lo_stage:M_LO_NMOS": Length shorter than recommended for a level 1 MOSFET.
Direct Newton iteration for .op point succeeded.

Simulation stopped by user.
Total elapsed time: 38.281 seconds.

Files loaded:
C:\Users\Gonzalo\Documents\GitHub\Circuitos II\1CTDC\CP5_buck_pwm\Buck y PWM\intento6_error.net
C:\Users\Gonzalo\AppData\Local\LTspice\lib\cmp\standard.dio
C:\Users\Gonzalo\AppData\Local\LTspice\lib\cmp\standard.mos
C:\Users\Gonzalo\Documents\GitHub\Circuitos II\1CTDC\CP5_buck_pwm\Buck y PWM\LM393.5_1
C:\Users\Gonzalo\Documents\GitHub\Circuitos II\1CTDC\CP5_buck_pwm\Buck y PWM\LM324.mod
C:\Users\Gonzalo\AppData\Local\LTspice\lib\sub\ADI.lib
C:\Users\Gonzalo\Documents\GitHub\Circuitos II\1CTDC\CP5_buck_pwm\Buck y PWM\IR2104.lib
C:\Users\Gonzalo\Documents\GitHub\Circuitos II\1CTDC\CP5_buck_pwm\Buck y PWM\TL431.mod

