LTspice 24.1.7 for Windows
Circuit: C:\Users\Gonzalo\Documents\GitHub\Circuitos II\1CTDC\CP5_buck_pwm\Buck y PWM\intento6_error.net
Start Time: Fri Jun 27 13:21:30 2025
Options: gmin=1e-11  abstol=1e-10  reltol=0.006  cshunt=1e-15
solver = Normal
Maximum thread count: 12
tnom = 27
temp = 27
method = modified trap
gmin = 1e-11
abstol = 1e-10
reltol = 0.006
Instance "u1:x_gd_template:x_ho_stage:M_HO_PMOS": Length shorter than recommended for a level 1 MOSFET.
Instance "u1:x_gd_template:x_ho_stage:M_HO_NMOS": Length shorter than recommended for a level 1 MOSFET.
Instance "u1:x_gd_template:x_lo_stage:M_LO_PMOS": Length shorter than recommended for a level 1 MOSFET.
Instance "u1:x_gd_template:x_lo_stage:M_LO_NMOS": Length shorter than recommended for a level 1 MOSFET.
Direct Newton iteration for .op point succeeded.
Warning: Simulation tolerance relaxed to achieve convergence from 9.8047435240066540e-05 to 9.8047435240067543e-05 seconds.
Warning: Simulation tolerance relaxed to achieve convergence from 9.8047435240074550e-05 to 9.8047435240075553e-05 seconds.
Warning: Simulation tolerance relaxed to achieve convergence from 9.8047435240079564e-05 to 9.8047435240080567e-05 seconds.
Warning: Simulation tolerance relaxed to achieve convergence from 9.8047435240080567e-05 to 9.8047435240081570e-05 seconds.
Warning: Simulation tolerance relaxed to achieve convergence from 9.8047435240087574e-05 to 9.8047435240088577e-05 seconds.
Warning: Simulation tolerance relaxed to achieve convergence from 9.8047435240103579e-05 to 9.8047435240104582e-05 seconds.
Warning: Simulation tolerance relaxed to achieve convergence from 9.8047435240104582e-05 to 9.8047435240105585e-05 seconds.
Warning: Simulation tolerance relaxed to achieve convergence from 9.8047435240112592e-05 to 9.8047435240113595e-05 seconds.
Warning: Simulation tolerance relaxed to achieve convergence from 9.8047435240114598e-05 to 9.8047435240115600e-05 seconds.
Warning: Simulation tolerance relaxed to achieve convergence from 9.8047435240117606e-05 to 9.8047435240118609e-05 seconds.
Warning: Simulation tolerance relaxed to achieve convergence from 9.8047435240121618e-05 to 9.8047435240122621e-05 seconds.
Warning: Simulation tolerance relaxed to achieve convergence from 9.8047435240124626e-05 to 9.8047435240125629e-05 seconds.
Warning: Simulation tolerance relaxed to achieve convergence from 9.8047435240131633e-05 to 9.8047435240132636e-05 seconds.
Warning: Simulation tolerance relaxed to achieve convergence from 9.8047435240138640e-05 to 9.8047435240139643e-05 seconds.
Warning: Simulation tolerance relaxed to achieve convergence from 9.8047435240141648e-05 to 9.8047435240142651e-05 seconds.
Warning: Simulation tolerance relaxed to achieve convergence from 9.8047435240143654e-05 to 9.8047435240144657e-05 seconds.
Warning: Simulation tolerance relaxed to achieve convergence from 9.8047435240164688e-05 to 9.8047435240165691e-05 seconds.
Warning: Simulation tolerance relaxed to achieve convergence from 9.8047435240165691e-05 to 9.8047435240166693e-05 seconds.
Warning: Simulation tolerance relaxed to achieve convergence from 9.8047435240166693e-05 to 9.8047435240167696e-05 seconds.
Warning: Simulation tolerance relaxed to achieve convergence from 9.8047435240173714e-05 to 9.8047435240174717e-05 seconds.
Warning: Simulation tolerance relaxed to achieve convergence from 9.8047435240175719e-05 to 9.8047435240176722e-05 seconds.
Warning: Simulation tolerance relaxed to achieve convergence from 9.8047435240177725e-05 to 9.8047435240178728e-05 seconds.
Warning: Simulation tolerance relaxed to achieve convergence from 9.8047435240181737e-05 to 9.8047435240182740e-05 seconds.
Warning: Simulation tolerance relaxed to achieve convergence from 9.8047435240184745e-05 to 9.8047435240185748e-05 seconds.
Warning: Simulation tolerance relaxed to achieve convergence from 9.8047435240187754e-05 to 9.8047435240188757e-05 seconds.
Warning: Simulation tolerance relaxed to achieve convergence from 9.8047435240197769e-05 to 9.8047435240198772e-05 seconds.
Warning: Simulation tolerance relaxed to achieve convergence from 9.8047435240205779e-05 to 9.8047435240206782e-05 seconds.
Warning: Simulation tolerance relaxed to achieve convergence from 9.8047435240207785e-05 to 9.8047435240208788e-05 seconds.
Warning: Simulation tolerance relaxed to achieve convergence from 9.8047435240208788e-05 to 9.8047435240209790e-05 seconds.
Warning: Simulation tolerance relaxed to achieve convergence from 9.8047435240209790e-05 to 9.8047435240210793e-05 seconds.
Warning: Simulation tolerance relaxed to achieve convergence from 9.8047435240210793e-05 to 9.8047435240211796e-05 seconds.
Warning: Simulation tolerance relaxed to achieve convergence from 9.8047435240213802e-05 to 9.8047435240214805e-05 seconds.
Warning: Simulation tolerance relaxed to achieve convergence from 9.8047435240214805e-05 to 9.8047435240215808e-05 seconds.
Warning: Simulation tolerance relaxed to achieve convergence from 9.8047435240220822e-05 to 9.8047435240221825e-05 seconds.
Warning: Simulation tolerance relaxed to achieve convergence from 9.8047435240223831e-05 to 9.8047435240224834e-05 seconds.
Warning: Simulation tolerance relaxed to achieve convergence from 9.8047435240224834e-05 to 9.8047435240225837e-05 seconds.
Warning: Simulation tolerance relaxed to achieve convergence from 9.8047435240225837e-05 to 9.8047435240226840e-05 seconds.
Warning: Simulation tolerance relaxed to achieve convergence from 9.8047435240231854e-05 to 9.8047435240232857e-05 seconds.
Warning: Simulation tolerance relaxed to achieve convergence from 9.8047435240232857e-05 to 9.8047435240233860e-05 seconds.
Warning: Simulation tolerance relaxed to achieve convergence from 9.8047435240233860e-05 to 9.8047435240234863e-05 seconds.
Warning: Simulation tolerance relaxed to achieve convergence from 9.8047435240247887e-05 to 9.8047435240248890e-05 seconds.
Warning: Simulation tolerance relaxed to achieve convergence from 9.8047435240249892e-05 to 9.8047435240250895e-05 seconds.
Warning: Simulation tolerance relaxed to achieve convergence from 9.8047435240252901e-05 to 9.8047435240253904e-05 seconds.
Warning: Simulation tolerance relaxed to achieve convergence from 9.8047435240256913e-05 to 9.8047435240257916e-05 seconds.
Warning: Simulation tolerance relaxed to achieve convergence from 9.8047435240260924e-05 to 9.8047435240261927e-05 seconds.
Warning: Simulation tolerance relaxed to achieve convergence from 9.8047435240261927e-05 to 9.8047435240262930e-05 seconds.
Warning: Simulation tolerance relaxed to achieve convergence from 9.8047435240281944e-05 to 9.8047435240282947e-05 seconds.
Warning: Simulation tolerance relaxed to achieve convergence from 9.8047435240284953e-05 to 9.8047435240285956e-05 seconds.
Warning: Simulation tolerance relaxed to achieve convergence from 9.8047435240287961e-05 to 9.8047435240288964e-05 seconds.
Warning: Simulation tolerance relaxed to achieve convergence from 9.8047435240291973e-05 to 9.8047435240292976e-05 seconds.
Warning: Simulation tolerance relaxed to achieve convergence from 9.8047435240294982e-05 to 9.8047435240295985e-05 seconds.
Warning: Simulation tolerance relaxed to achieve convergence from 9.8047435240295985e-05 to 9.8047435240296987e-05 seconds.
Warning: Simulation tolerance relaxed to achieve convergence from 9.8047435240298993e-05 to 9.8047435240299996e-05 seconds.
Warning: Simulation tolerance relaxed to achieve convergence from 9.8047435240307003e-05 to 9.8047435240308006e-05 seconds.
Warning: Simulation tolerance relaxed to achieve convergence from 9.8047435240308006e-05 to 9.8047435240309009e-05 seconds.
Warning: Simulation tolerance relaxed to achieve convergence from 9.8047435240311014e-05 to 9.8047435240312017e-05 seconds.
Warning: Simulation tolerance relaxed to achieve convergence from 9.8047435240318021e-05 to 9.8047435240319024e-05 seconds.
Warning: Simulation tolerance relaxed to achieve convergence from 9.8047435240321030e-05 to 9.8047435240322033e-05 seconds.
Warning: Simulation tolerance relaxed to achieve convergence from 9.8047435240336046e-05 to 9.8047435240337049e-05 seconds.
Warning: Simulation tolerance relaxed to achieve convergence from 9.8047435240338052e-05 to 9.8047435240339054e-05 seconds.
Warning: Simulation tolerance relaxed to achieve convergence from 9.8047435240341060e-05 to 9.8047435240342063e-05 seconds.
Warning: Simulation tolerance relaxed to achieve convergence from 9.8047435240342063e-05 to 9.8047435240343066e-05 seconds.
Warning: Simulation tolerance relaxed to achieve convergence from 9.8047435240352078e-05 to 9.8047435240353081e-05 seconds.
Warning: Simulation tolerance relaxed to achieve convergence from 9.8047435240353081e-05 to 9.8047435240354084e-05 seconds.
Warning: Simulation tolerance relaxed to achieve convergence from 9.8047435240354084e-05 to 9.8047435240355087e-05 seconds.
Warning: Simulation tolerance relaxed to achieve convergence from 9.8047435240358096e-05 to 9.8047435240359099e-05 seconds.
Warning: Simulation tolerance relaxed to achieve convergence from 9.8047435240360102e-05 to 9.8047435240361104e-05 seconds.
Warning: Simulation tolerance relaxed to achieve convergence from 9.8047435240372123e-05 to 9.8047435240373126e-05 seconds.
Warning: Simulation tolerance relaxed to achieve convergence from 9.8047435240375131e-05 to 9.8047435240376134e-05 seconds.
Warning: Simulation tolerance relaxed to achieve convergence from 9.8047435240379143e-05 to 9.8047435240380146e-05 seconds.
Warning: Simulation tolerance relaxed to achieve convergence from 9.8047435240383154e-05 to 9.8047435240384157e-05 seconds.
Warning: Simulation tolerance relaxed to achieve convergence from 9.8047435240384157e-05 to 9.8047435240385160e-05 seconds.
Warning: Simulation tolerance relaxed to achieve convergence from 9.8047435240387166e-05 to 9.8047435240388169e-05 seconds.
Warning: Simulation tolerance relaxed to achieve convergence from 9.8047435240390175e-05 to 9.8047435240391178e-05 seconds.
Warning: Simulation tolerance relaxed to achieve convergence from 9.8047435240392180e-05 to 9.8047435240393183e-05 seconds.
Warning: Simulation tolerance relaxed to achieve convergence from 9.8047435240393183e-05 to 9.8047435240394186e-05 seconds.
Warning: Simulation tolerance relaxed to achieve convergence from 9.8047435240398198e-05 to 9.8047435240399201e-05 seconds.
Warning: Simulation tolerance relaxed to achieve convergence from 9.8047435240401206e-05 to 9.8047435240402209e-05 seconds.
Warning: Simulation tolerance relaxed to achieve convergence from 9.8047435240402209e-05 to 9.8047435240403212e-05 seconds.
Warning: Simulation tolerance relaxed to achieve convergence from 9.8047435240410219e-05 to 9.8047435240411222e-05 seconds.
Warning: Simulation tolerance relaxed to achieve convergence from 9.8047435240411222e-05 to 9.8047435240412225e-05 seconds.
Warning: Simulation tolerance relaxed to achieve convergence from 9.8047435240419231e-05 to 9.8047435240420234e-05 seconds.
Warning: Simulation tolerance relaxed to achieve convergence from 9.8047435240420234e-05 to 9.8047435240421237e-05 seconds.
Warning: Simulation tolerance relaxed to achieve convergence from 9.8047435240421237e-05 to 9.8047435240422240e-05 seconds.
Warning: Simulation tolerance relaxed to achieve convergence from 9.8047435240422240e-05 to 9.8047435240423243e-05 seconds.
Warning: Simulation tolerance relaxed to achieve convergence from 9.8047435240426251e-05 to 9.8047435240427254e-05 seconds.
Warning: Simulation tolerance relaxed to achieve convergence from 9.8047435240431266e-05 to 9.8047435240432269e-05 seconds.
Warning: Simulation tolerance relaxed to achieve convergence from 9.8047435240434275e-05 to 9.8047435240435277e-05 seconds.
Warning: Simulation tolerance relaxed to achieve convergence from 9.8047435240439289e-05 to 9.8047435240440292e-05 seconds.
Warning: Simulation tolerance relaxed to achieve convergence from 9.8047435240443301e-05 to 9.8047435240444303e-05 seconds.
Warning: Simulation tolerance relaxed to achieve convergence from 9.8047435240447312e-05 to 9.8047435240448315e-05 seconds.
Warning: Simulation tolerance relaxed to achieve convergence from 9.8047435240453329e-05 to 9.8047435240454332e-05 seconds.
Warning: Simulation tolerance relaxed to achieve convergence from 9.8047435240467356e-05 to 9.8047435240468359e-05 seconds.
Warning: Simulation tolerance relaxed to achieve convergence from 9.8047435240468359e-05 to 9.8047435240469362e-05 seconds.
Warning: Simulation tolerance relaxed to achieve convergence from 9.8047435240475379e-05 to 9.8047435240476382e-05 seconds.
Warning: Simulation tolerance relaxed to achieve convergence from 9.8047435240478388e-05 to 9.8047435240479391e-05 seconds.
Warning: Simulation tolerance relaxed to achieve convergence from 9.8047435240484405e-05 to 9.8047435240485408e-05 seconds.
Warning: Simulation tolerance relaxed to achieve convergence from 9.8047435240487414e-05 to 9.8047435240488417e-05 seconds.
Warning: Simulation tolerance relaxed to achieve convergence from 9.8047435240490423e-05 to 9.8047435240491426e-05 seconds.
Warning: Simulation tolerance relaxed to achieve convergence from 9.8047435240495437e-05 to 9.8047435240496440e-05 seconds.
Warning: Simulation tolerance relaxed to achieve convergence from 9.8047435240502444e-05 to 9.8047435240503447e-05 seconds.
Warning: Simulation tolerance relaxed to achieve convergence from 9.8047435240503447e-05 to 9.8047435240504450e-05 seconds.
Warning: Simulation tolerance relaxed to achieve convergence from 9.8047435240522461e-05 to 9.8047435240523464e-05 seconds.
Warning: Simulation tolerance relaxed to achieve convergence from 9.8047435240523464e-05 to 9.8047435240524467e-05 seconds.
Warning: Simulation tolerance relaxed to achieve convergence from 9.8047435240526472e-05 to 9.8047435240527475e-05 seconds.
Warning: Simulation tolerance relaxed to achieve convergence from 9.8047435240527475e-05 to 9.8047435240528478e-05 seconds.
Warning: Simulation tolerance relaxed to achieve convergence from 9.8047435240549485e-05 to 9.8047435240550487e-05 seconds.
Warning: Simulation tolerance relaxed to achieve convergence from 9.8047435240554499e-05 to 9.8047435240555502e-05 seconds.
Warning: Simulation tolerance relaxed to achieve convergence from 9.8047435240561506e-05 to 9.8047435240562509e-05 seconds.
Warning: Simulation tolerance relaxed to achieve convergence from 9.8047435240564514e-05 to 9.8047435240565517e-05 seconds.
Warning: Simulation tolerance relaxed to achieve convergence from 9.8047435240567523e-05 to 9.8047435240568526e-05 seconds.
Warning: Simulation tolerance relaxed to achieve convergence from 9.8047435240568526e-05 to 9.8047435240569529e-05 seconds.
Warning: Simulation tolerance relaxed to achieve convergence from 9.8047435240572537e-05 to 9.8047435240573540e-05 seconds.
Warning: Simulation tolerance relaxed to achieve convergence from 9.8047435240573540e-05 to 9.8047435240574543e-05 seconds.
Warning: Simulation tolerance relaxed to achieve convergence from 9.8047435240575546e-05 to 9.8047435240576549e-05 seconds.
Warning: Simulation tolerance relaxed to achieve convergence from 9.8047435240576549e-05 to 9.8047435240577552e-05 seconds.
Warning: Simulation tolerance relaxed to achieve convergence from 9.8047435240580561e-05 to 9.8047435240581563e-05 seconds.
Warning: Simulation tolerance relaxed to achieve convergence from 9.8047435240589573e-05 to 9.8047435240590576e-05 seconds.
Warning: Simulation tolerance relaxed to achieve convergence from 9.8047435240598585e-05 to 9.8047435240599588e-05 seconds.
Warning: Simulation tolerance relaxed to achieve convergence from 9.8047435240604603e-05 to 9.8047435240605606e-05 seconds.
Warning: Simulation tolerance relaxed to achieve convergence from 9.8047435240611623e-05 to 9.8047435240612626e-05 seconds.
Warning: Simulation tolerance relaxed to achieve convergence from 9.8047435240621638e-05 to 9.8047435240622641e-05 seconds.
Warning: Simulation tolerance relaxed to achieve convergence from 9.8047435240626653e-05 to 9.8047435240627656e-05 seconds.
Warning: Simulation tolerance relaxed to achieve convergence from 9.8047435240627656e-05 to 9.8047435240628658e-05 seconds.
Warning: Simulation tolerance relaxed to achieve convergence from 9.8047435240628658e-05 to 9.8047435240629661e-05 seconds.
Warning: Simulation tolerance relaxed to achieve convergence from 9.8047435240631667e-05 to 9.8047435240632670e-05 seconds.
Warning: Simulation tolerance relaxed to achieve convergence from 9.8047435240638674e-05 to 9.8047435240639677e-05 seconds.
Warning: Simulation tolerance relaxed to achieve convergence from 9.8047435240639677e-05 to 9.8047435240640680e-05 seconds.
Warning: Simulation tolerance relaxed to achieve convergence from 9.8047435240670685e-05 to 9.8047435240671688e-05 seconds.
Warning: Simulation tolerance relaxed to achieve convergence from 9.8047435240677691e-05 to 9.8047435240678694e-05 seconds.
Warning: Simulation tolerance relaxed to achieve convergence from 9.8047435240678694e-05 to 9.8047435240679697e-05 seconds.
Warning: Simulation tolerance relaxed to achieve convergence from 9.8047435240685701e-05 to 9.8047435240686704e-05 seconds.
Warning: Simulation tolerance relaxed to achieve convergence from 9.8047435240687707e-05 to 9.8047435240688710e-05 seconds.
Warning: Simulation tolerance relaxed to achieve convergence from 9.8047435240688710e-05 to 9.8047435240689713e-05 seconds.
Warning: Simulation tolerance relaxed to achieve convergence from 9.8047435240690715e-05 to 9.8047435240691718e-05 seconds.
Warning: Simulation tolerance relaxed to achieve convergence from 9.8047435240693724e-05 to 9.8047435240694727e-05 seconds.
Warning: Simulation tolerance relaxed to achieve convergence from 9.8047435240694727e-05 to 9.8047435240695730e-05 seconds.
Warning: Simulation tolerance relaxed to achieve convergence from 9.8047435240695730e-05 to 9.8047435240696733e-05 seconds.
Warning: Simulation tolerance relaxed to achieve convergence from 9.8047435240701747e-05 to 9.8047435240702750e-05 seconds.
Warning: Simulation tolerance relaxed to achieve convergence from 9.8047435240704756e-05 to 9.8047435240705759e-05 seconds.
Warning: Simulation tolerance relaxed to achieve convergence from 9.8047435240716777e-05 to 9.8047435240717780e-05 seconds.
Warning: Simulation tolerance relaxed to achieve convergence from 9.8047435240717780e-05 to 9.8047435240718783e-05 seconds.
Warning: Simulation tolerance relaxed to achieve convergence from 9.8047435240721791e-05 to 9.8047435240722794e-05 seconds.
Warning: Simulation tolerance relaxed to achieve convergence from 9.8047435240731807e-05 to 9.8047435240732810e-05 seconds.
Warning: Simulation tolerance relaxed to achieve convergence from 9.8047435240748815e-05 to 9.8047435240749818e-05 seconds.
Warning: Simulation tolerance relaxed to achieve convergence from 9.8047435240755822e-05 to 9.8047435240756825e-05 seconds.
Warning: Simulation tolerance relaxed to achieve convergence from 9.8047435240756825e-05 to 9.8047435240757828e-05 seconds.
Warning: Simulation tolerance relaxed to achieve convergence from 9.8047435240758830e-05 to 9.8047435240759833e-05 seconds.
Warning: Simulation tolerance relaxed to achieve convergence from 9.8047435240759833e-05 to 9.8047435240760836e-05 seconds.
Warning: Simulation tolerance relaxed to achieve convergence from 9.8047435240762842e-05 to 9.8047435240763845e-05 seconds.
Warning: Simulation tolerance relaxed to achieve convergence from 9.8047435240768859e-05 to 9.8047435240769862e-05 seconds.
Warning: Simulation tolerance relaxed to achieve convergence from 9.8047435240769862e-05 to 9.8047435240770865e-05 seconds.
Warning: Simulation tolerance relaxed to achieve convergence from 9.8047435240770865e-05 to 9.8047435240771868e-05 seconds.
Warning: Simulation tolerance relaxed to achieve convergence from 9.8047435240779878e-05 to 9.8047435240780880e-05 seconds.
Warning: Simulation tolerance relaxed to achieve convergence from 9.8047435240782886e-05 to 9.8047435240783889e-05 seconds.
Warning: Simulation tolerance relaxed to achieve convergence from 9.8047435240783889e-05 to 9.8047435240784892e-05 seconds.
Warning: Simulation tolerance relaxed to achieve convergence from 9.8047435240784892e-05 to 9.8047435240785895e-05 seconds.
Warning: Simulation tolerance relaxed to achieve convergence from 9.8047435240787901e-05 to 9.8047435240788904e-05 seconds.
Warning: Simulation tolerance relaxed to achieve convergence from 9.8047435240790909e-05 to 9.8047435240791912e-05 seconds.
Warning: Simulation tolerance relaxed to achieve convergence from 9.8047435240792915e-05 to 9.8047435240793918e-05 seconds.
Warning: Simulation tolerance relaxed to achieve convergence from 9.8047435240793918e-05 to 9.8047435240794921e-05 seconds.
Warning: Simulation tolerance relaxed to achieve convergence from 9.8047435240805953e-05 to 9.8047435240806955e-05 seconds.
Warning: Simulation tolerance relaxed to achieve convergence from 9.8047435240812959e-05 to 9.8047435240813962e-05 seconds.
Warning: Simulation tolerance relaxed to achieve convergence from 9.8047435240815968e-05 to 9.8047435240816971e-05 seconds.
Warning: Simulation tolerance relaxed to achieve convergence from 9.8047435240816971e-05 to 9.8047435240817974e-05 seconds.
Warning: Simulation tolerance relaxed to achieve convergence from 9.8047435240817974e-05 to 9.8047435240818977e-05 seconds.
Warning: Simulation tolerance relaxed to achieve convergence from 9.8047435240820982e-05 to 9.8047435240821985e-05 seconds.
Warning: Simulation tolerance relaxed to achieve convergence from 9.8047435240835985e-05 to 9.8047435240836988e-05 seconds.
Warning: Simulation tolerance relaxed to achieve convergence from 9.8047435240864012e-05 to 9.8047435240865015e-05 seconds.
Warning: Simulation tolerance relaxed to achieve convergence from 9.8047435240865015e-05 to 9.8047435240866017e-05 seconds.
Warning: Simulation tolerance relaxed to achieve convergence from 9.8047435240866017e-05 to 9.8047435240867020e-05 seconds.
Warning: Simulation tolerance relaxed to achieve convergence from 9.8047435240867020e-05 to 9.8047435240868023e-05 seconds.
Warning: Simulation tolerance relaxed to achieve convergence from 9.8047435240870029e-05 to 9.8047435240871032e-05 seconds.
Warning: Simulation tolerance relaxed to achieve convergence from 9.8047435240871032e-05 to 9.8047435240872035e-05 seconds.
Warning: Simulation tolerance relaxed to achieve convergence from 9.8047435240872035e-05 to 9.8047435240873038e-05 seconds.
Warning: Simulation tolerance relaxed to achieve convergence from 9.8047435240873038e-05 to 9.8047435240874040e-05 seconds.
Warning: Simulation tolerance relaxed to achieve convergence from 9.8047435240874040e-05 to 9.8047435240875043e-05 seconds.
Warning: Simulation tolerance relaxed to achieve convergence from 9.8047435240875043e-05 to 9.8047435240876046e-05 seconds.
Warning: Simulation tolerance relaxed to achieve convergence from 9.8047435240879055e-05 to 9.8047435240880058e-05 seconds.
Warning: Simulation tolerance relaxed to achieve convergence from 9.8047435240886062e-05 to 9.8047435240887064e-05 seconds.
Warning: Simulation tolerance relaxed to achieve convergence from 9.8047435240890073e-05 to 9.8047435240891076e-05 seconds.
Warning: Simulation tolerance relaxed to achieve convergence from 9.8047435240893082e-05 to 9.8047435240894085e-05 seconds.
Warning: Simulation tolerance relaxed to achieve convergence from 9.8047435240896090e-05 to 9.8047435240897093e-05 seconds.
Warning: Simulation tolerance relaxed to achieve convergence from 9.8047435240901105e-05 to 9.8047435240902108e-05 seconds.
Warning: Simulation tolerance relaxed to achieve convergence from 9.8047435240904114e-05 to 9.8047435240905116e-05 seconds.
Warning: Simulation tolerance relaxed to achieve convergence from 9.8047435240906119e-05 to 9.8047435240907122e-05 seconds.
Warning: Simulation tolerance relaxed to achieve convergence from 9.8047435240911134e-05 to 9.8047435240912137e-05 seconds.
Warning: Simulation tolerance relaxed to achieve convergence from 9.8047435240933170e-05 to 9.8047435240934173e-05 seconds.
Warning: Simulation tolerance relaxed to achieve convergence from 9.8047435240940177e-05 to 9.8047435240941180e-05 seconds.
Warning: Simulation tolerance relaxed to achieve convergence from 9.8047435240941180e-05 to 9.8047435240942183e-05 seconds.
Warning: Simulation tolerance relaxed to achieve convergence from 9.8047435240947197e-05 to 9.8047435240948200e-05 seconds.
Warning: Simulation tolerance relaxed to achieve convergence from 9.8047435240948200e-05 to 9.8047435240949203e-05 seconds.
Warning: Simulation tolerance relaxed to achieve convergence from 9.8047435240962227e-05 to 9.8047435240963230e-05 seconds.
Warning: Simulation tolerance relaxed to achieve convergence from 9.8047435240963230e-05 to 9.8047435240964233e-05 seconds.
Warning: Simulation tolerance relaxed to achieve convergence from 9.8047435240964233e-05 to 9.8047435240965235e-05 seconds.
Warning: Simulation tolerance relaxed to achieve convergence from 9.8047435240968244e-05 to 9.8047435240969247e-05 seconds.
Warning: Simulation tolerance relaxed to achieve convergence from 9.8047435240970250e-05 to 9.8047435240971253e-05 seconds.
Warning: Simulation tolerance relaxed to achieve convergence from 9.8047435240971253e-05 to 9.8047435240972256e-05 seconds.
Warning: Simulation tolerance relaxed to achieve convergence from 9.8047435240972256e-05 to 9.8047435240973259e-05 seconds.
Warning: Simulation tolerance relaxed to achieve convergence from 9.8047435240977270e-05 to 9.8047435240978273e-05 seconds.
Warning: Simulation tolerance relaxed to achieve convergence from 9.8047435240985280e-05 to 9.8047435240986283e-05 seconds.
Warning: Simulation tolerance relaxed to achieve convergence from 9.8047435240988288e-05 to 9.8047435240989291e-05 seconds.
Warning: Simulation tolerance relaxed to achieve convergence from 9.8047435240991297e-05 to 9.8047435240992300e-05 seconds.
Warning: Simulation tolerance relaxed to achieve convergence from 9.8047435240992300e-05 to 9.8047435240993303e-05 seconds.
Warning: Simulation tolerance relaxed to achieve convergence from 9.8047435241008332e-05 to 9.8047435241009335e-05 seconds.
Warning: Simulation tolerance relaxed to achieve convergence from 9.8047435241010338e-05 to 9.8047435241011341e-05 seconds.
Warning: Simulation tolerance relaxed to achieve convergence from 9.8047435241017358e-05 to 9.8047435241018361e-05 seconds.
Warning: Simulation tolerance relaxed to achieve convergence from 9.8047435241018361e-05 to 9.8047435241019364e-05 seconds.
Warning: Simulation tolerance relaxed to achieve convergence from 9.8047435241019364e-05 to 9.8047435241020367e-05 seconds.
Warning: Simulation tolerance relaxed to achieve convergence from 9.8047435241027374e-05 to 9.8047435241028377e-05 seconds.
Warning: Simulation tolerance relaxed to achieve convergence from 9.8047435241028377e-05 to 9.8047435241029380e-05 seconds.
Warning: Simulation tolerance relaxed to achieve convergence from 9.8047435241030382e-05 to 9.8047435241031385e-05 seconds.
Warning: Simulation tolerance relaxed to achieve convergence from 9.8047435241038392e-05 to 9.8047435241039395e-05 seconds.
Warning: Simulation tolerance relaxed to achieve convergence from 9.8047435241040398e-05 to 9.8047435241041401e-05 seconds.
Warning: Simulation tolerance relaxed to achieve convergence from 9.8047435241041401e-05 to 9.8047435241042404e-05 seconds.
Warning: Simulation tolerance relaxed to achieve convergence from 9.8047435241042404e-05 to 9.8047435241043406e-05 seconds.
Warning: Simulation tolerance relaxed to achieve convergence from 9.8047435241043406e-05 to 9.8047435241044409e-05 seconds.
Warning: Simulation tolerance relaxed to achieve convergence from 9.8047435241066432e-05 to 9.8047435241067435e-05 seconds.
Warning: Simulation tolerance relaxed to achieve convergence from 9.8047435241067435e-05 to 9.8047435241068438e-05 seconds.
Warning: Simulation tolerance relaxed to achieve convergence from 9.8047435241075445e-05 to 9.8047435241076447e-05 seconds.
Warning: Simulation tolerance relaxed to achieve convergence from 9.8047435241076447e-05 to 9.8047435241077450e-05 seconds.
Warning: Simulation tolerance relaxed to achieve convergence from 9.8047435241077450e-05 to 9.8047435241078453e-05 seconds.
Warning: Simulation tolerance relaxed to achieve convergence from 9.8047435241080459e-05 to 9.8047435241081462e-05 seconds.
Warning: Simulation tolerance relaxed to achieve convergence from 9.8047435241081462e-05 to 9.8047435241082465e-05 seconds.
Warning: Simulation tolerance relaxed to achieve convergence from 9.8047435241084471e-05 to 9.8047435241085473e-05 seconds.
Warning: Simulation tolerance relaxed to achieve convergence from 9.8047435241085473e-05 to 9.8047435241086476e-05 seconds.
Warning: Simulation tolerance relaxed to achieve convergence from 9.8047435241400475e-05 to 9.8047435241401478e-05 seconds.
Warning: Simulation tolerance relaxed to achieve convergence from 9.8047435241408484e-05 to 9.8047435241409487e-05 seconds.
Warning: Simulation tolerance relaxed to achieve convergence from 9.8047435241415491e-05 to 9.8047435241416494e-05 seconds.
Warning: Simulation tolerance relaxed to achieve convergence from 9.8047435241418500e-05 to 9.8047435241419503e-05 seconds.
Warning: Simulation tolerance relaxed to achieve convergence from 9.8047435241422511e-05 to 9.8047435241423514e-05 seconds.
Warning: Simulation tolerance relaxed to achieve convergence from 9.8047435241424517e-05 to 9.8047435241425520e-05 seconds.
Warning: Simulation tolerance relaxed to achieve convergence from 9.8047435241425520e-05 to 9.8047435241426523e-05 seconds.
Warning: Simulation tolerance relaxed to achieve convergence from 9.8047435241430534e-05 to 9.8047435241431537e-05 seconds.
Warning: Simulation tolerance relaxed to achieve convergence from 9.8047435241432540e-05 to 9.8047435241433543e-05 seconds.
Warning: Simulation tolerance relaxed to achieve convergence from 9.8047435241436552e-05 to 9.8047435241437555e-05 seconds.
Warning: Simulation tolerance relaxed to achieve convergence from 9.8047435241439560e-05 to 9.8047435241440563e-05 seconds.
Warning: Simulation tolerance relaxed to achieve convergence from 9.8047435241443572e-05 to 9.8047435241444575e-05 seconds.
Warning: Simulation tolerance relaxed to achieve convergence from 9.8047435241446581e-05 to 9.8047435241447583e-05 seconds.
Warning: Simulation tolerance relaxed to achieve convergence from 9.8047435241456596e-05 to 9.8047435241457599e-05 seconds.
Warning: Simulation tolerance relaxed to achieve convergence from 9.8047435241457599e-05 to 9.8047435241458602e-05 seconds.
Warning: Simulation tolerance relaxed to achieve convergence from 9.8047435241462613e-05 to 9.8047435241463616e-05 seconds.
Warning: Simulation tolerance relaxed to achieve convergence from 9.8047435241464619e-05 to 9.8047435241465622e-05 seconds.
Warning: Simulation tolerance relaxed to achieve convergence from 9.8047435241494651e-05 to 9.8047435241495654e-05 seconds.
Warning: Simulation tolerance relaxed to achieve convergence from 9.8047435241503664e-05 to 9.8047435241504667e-05 seconds.
Warning: Simulation tolerance relaxed to achieve convergence from 9.8047435241510670e-05 to 9.8047435241511673e-05 seconds.
Warning: Simulation tolerance relaxed to achieve convergence from 9.8047435241517677e-05 to 9.8047435241518680e-05 seconds.
Warning: Simulation tolerance relaxed to achieve convergence from 9.8047435241518680e-05 to 9.8047435241519683e-05 seconds.
Warning: Simulation tolerance relaxed to achieve convergence from 9.8047435241519683e-05 to 9.8047435241520686e-05 seconds.
Warning: Simulation tolerance relaxed to achieve convergence from 9.8047435241522692e-05 to 9.8047435241523694e-05 seconds.
Warning: Simulation tolerance relaxed to achieve convergence from 9.8047435241530701e-05 to 9.8047435241531704e-05 seconds.
Warning: Simulation tolerance relaxed to achieve convergence from 9.8047435241533710e-05 to 9.8047435241534713e-05 seconds.
Warning: Simulation tolerance relaxed to achieve convergence from 9.8047435241540716e-05 to 9.8047435241541719e-05 seconds.
Warning: Simulation tolerance relaxed to achieve convergence from 9.8047435241541719e-05 to 9.8047435241542722e-05 seconds.
Warning: Simulation tolerance relaxed to achieve convergence from 9.8047435241544728e-05 to 9.8047435241545731e-05 seconds.
Warning: Simulation tolerance relaxed to achieve convergence from 9.8047435241578745e-05 to 9.8047435241579748e-05 seconds.
Warning: Simulation tolerance relaxed to achieve convergence from 9.8047435241585765e-05 to 9.8047435241586768e-05 seconds.
Warning: Simulation tolerance relaxed to achieve convergence from 9.8047435241586768e-05 to 9.8047435241587771e-05 seconds.
Warning: Simulation tolerance relaxed to achieve convergence from 9.8047435241597786e-05 to 9.8047435241598789e-05 seconds.
Warning: Simulation tolerance relaxed to achieve convergence from 9.8047435241605796e-05 to 9.8047435241606799e-05 seconds.
Warning: Simulation tolerance relaxed to achieve convergence from 9.8047435241636804e-05 to 9.8047435241637807e-05 seconds.
Warning: Simulation tolerance relaxed to achieve convergence from 9.8047435241639812e-05 to 9.8047435241640815e-05 seconds.
Warning: Simulation tolerance relaxed to achieve convergence from 9.8047435241646819e-05 to 9.8047435241647822e-05 seconds.
Warning: Simulation tolerance relaxed to achieve convergence from 9.8047435241653826e-05 to 9.8047435241654829e-05 seconds.
Warning: Simulation tolerance relaxed to achieve convergence from 9.8047435241654829e-05 to 9.8047435241655832e-05 seconds.
Warning: Simulation tolerance relaxed to achieve convergence from 9.8047435241655832e-05 to 9.8047435241656834e-05 seconds.
Warning: Simulation tolerance relaxed to achieve convergence from 9.8047435241670834e-05 to 9.8047435241671837e-05 seconds.
Warning: Simulation tolerance relaxed to achieve convergence from 9.8047435241671837e-05 to 9.8047435241672840e-05 seconds.
Warning: Simulation tolerance relaxed to achieve convergence from 9.8047435241672840e-05 to 9.8047435241673843e-05 seconds.
Warning: Simulation tolerance relaxed to achieve convergence from 9.8047435241673843e-05 to 9.8047435241674846e-05 seconds.
Warning: Simulation tolerance relaxed to achieve convergence from 9.8047435241676852e-05 to 9.8047435241677854e-05 seconds.
Warning: Simulation tolerance relaxed to achieve convergence from 9.8047435241686880e-05 to 9.8047435241687883e-05 seconds.
Warning: Simulation tolerance relaxed to achieve convergence from 9.8047435241689889e-05 to 9.8047435241690892e-05 seconds.
Warning: Simulation tolerance relaxed to achieve convergence from 9.8047435241696896e-05 to 9.8047435241697899e-05 seconds.
Warning: Simulation tolerance relaxed to achieve convergence from 9.8047435241699904e-05 to 9.8047435241700907e-05 seconds.
Warning: Simulation tolerance relaxed to achieve convergence from 9.8047435241700907e-05 to 9.8047435241701910e-05 seconds.
Warning: Simulation tolerance relaxed to achieve convergence from 9.8047435241717916e-05 to 9.8047435241718919e-05 seconds.
Warning: Simulation tolerance relaxed to achieve convergence from 9.8047435241718919e-05 to 9.8047435241719921e-05 seconds.
Warning: Simulation tolerance relaxed to achieve convergence from 9.8047435241722930e-05 to 9.8047435241723933e-05 seconds.
Warning: Simulation tolerance relaxed to achieve convergence from 9.8047435241726942e-05 to 9.8047435241727945e-05 seconds.
Warning: Simulation tolerance relaxed to achieve convergence from 9.8047435241727945e-05 to 9.8047435241728947e-05 seconds.
Warning: Simulation tolerance relaxed to achieve convergence from 9.8047435241728947e-05 to 9.8047435241729950e-05 seconds.
Warning: Simulation tolerance relaxed to achieve convergence from 9.8047435241729950e-05 to 9.8047435241730953e-05 seconds.
Warning: Simulation tolerance relaxed to achieve convergence from 9.8047435241730953e-05 to 9.8047435241731956e-05 seconds.
Warning: Simulation tolerance relaxed to achieve convergence from 9.8047435241734965e-05 to 9.8047435241735968e-05 seconds.
Warning: Simulation tolerance relaxed to achieve convergence from 9.8047435241745983e-05 to 9.8047435241746986e-05 seconds.
Warning: Simulation tolerance relaxed to achieve convergence from 9.8047435241746986e-05 to 9.8047435241747989e-05 seconds.
Warning: Simulation tolerance relaxed to achieve convergence from 9.8047435241747989e-05 to 9.8047435241748992e-05 seconds.
Warning: Simulation tolerance relaxed to achieve convergence from 9.8047435241748992e-05 to 9.8047435241749995e-05 seconds.
Warning: Simulation tolerance relaxed to achieve convergence from 9.8047435241752000e-05 to 9.8047435241753003e-05 seconds.
Warning: Simulation tolerance relaxed to achieve convergence from 9.8047435241756012e-05 to 9.8047435241757015e-05 seconds.
Warning: Simulation tolerance relaxed to achieve convergence from 9.8047435241757015e-05 to 9.8047435241758018e-05 seconds.
Warning: Simulation tolerance relaxed to achieve convergence from 9.8047435241759021e-05 to 9.8047435241760023e-05 seconds.
Warning: Simulation tolerance relaxed to achieve convergence from 9.8047435241761026e-05 to 9.8047435241762029e-05 seconds.
Warning: Simulation tolerance relaxed to achieve convergence from 9.8047435241762029e-05 to 9.8047435241763032e-05 seconds.
Warning: Simulation tolerance relaxed to achieve convergence from 9.8047435241763032e-05 to 9.8047435241764035e-05 seconds.
Warning: Simulation tolerance relaxed to achieve convergence from 9.8047435241780040e-05 to 9.8047435241781043e-05 seconds.
Warning: Simulation tolerance relaxed to achieve convergence from 9.8047435241781043e-05 to 9.8047435241782046e-05 seconds.
Warning: Simulation tolerance relaxed to achieve convergence from 9.8047435241785055e-05 to 9.8047435241786058e-05 seconds.
Warning: Simulation tolerance relaxed to achieve convergence from 9.8047435241786058e-05 to 9.8047435241787061e-05 seconds.
Warning: Simulation tolerance relaxed to achieve convergence from 9.8047435241796073e-05 to 9.8047435241797076e-05 seconds.
Warning: Simulation tolerance relaxed to achieve convergence from 9.8047435242063071e-05 to 9.8047435242064074e-05 seconds.
Warning: Simulation tolerance relaxed to achieve convergence from 1.0621078255193393e-04 to 1.0621078255193493e-04 seconds.
Warning: Simulation tolerance relaxed to achieve convergence from 1.0621078255194093e-04 to 1.0621078255194194e-04 seconds.
Warning: Simulation tolerance relaxed to achieve convergence from 1.0621078255194394e-04 to 1.0621078255194494e-04 seconds.
Warning: Simulation tolerance relaxed to achieve convergence from 1.0621078255194494e-04 to 1.0621078255194595e-04 seconds.
Warning: Simulation tolerance relaxed to achieve convergence from 1.0621078255196096e-04 to 1.0621078255196197e-04 seconds.
Warning: Simulation tolerance relaxed to achieve convergence from 1.0621078255196798e-04 to 1.0621078255196899e-04 seconds.
Warning: Simulation tolerance relaxed to achieve convergence from 1.0621078255197200e-04 to 1.0621078255197300e-04 seconds.
Warning: Simulation tolerance relaxed to achieve convergence from 1.0621078255197300e-04 to 1.0621078255197400e-04 seconds.
Warning: Simulation tolerance relaxed to achieve convergence from 1.0621078255197601e-04 to 1.0621078255197701e-04 seconds.
Warning: Simulation tolerance relaxed to achieve convergence from 1.0621078255198002e-04 to 1.0621078255198102e-04 seconds.
Warning: Simulation tolerance relaxed to achieve convergence from 1.0621078255198303e-04 to 1.0621078255198403e-04 seconds.
Warning: Simulation tolerance relaxed to achieve convergence from 1.0621078255198403e-04 to 1.0621078255198503e-04 seconds.
Warning: Simulation tolerance relaxed to achieve convergence from 1.0621078255198604e-04 to 1.0621078255198704e-04 seconds.
Warning: Simulation tolerance relaxed to achieve convergence from 1.0621078255198904e-04 to 1.0621078255199005e-04 seconds.
Warning: Simulation tolerance relaxed to achieve convergence from 1.0621078255199506e-04 to 1.0621078255199606e-04 seconds.
Warning: Simulation tolerance relaxed to achieve convergence from 1.0621078255199606e-04 to 1.0621078255199707e-04 seconds.
Warning: Simulation tolerance relaxed to achieve convergence from 1.0621078255199707e-04 to 1.0621078255199807e-04 seconds.
Warning: Simulation tolerance relaxed to achieve convergence from 1.0621078255199807e-04 to 1.0621078255199907e-04 seconds.
Warning: Simulation tolerance relaxed to achieve convergence from 1.0621078255199907e-04 to 1.0621078255200008e-04 seconds.
Warning: Simulation tolerance relaxed to achieve convergence from 1.0621078255200208e-04 to 1.0621078255200308e-04 seconds.
Warning: Simulation tolerance relaxed to achieve convergence from 1.0621078255200509e-04 to 1.0621078255200609e-04 seconds.
Warning: Simulation tolerance relaxed to achieve convergence from 1.0621078255200910e-04 to 1.0621078255201010e-04 seconds.
Warning: Simulation tolerance relaxed to achieve convergence from 1.0621078255201010e-04 to 1.0621078255201111e-04 seconds.
Warning: Simulation tolerance relaxed to achieve convergence from 1.0621078255201111e-04 to 1.0621078255201211e-04 seconds.
Warning: Simulation tolerance relaxed to achieve convergence from 1.0621078255201811e-04 to 1.0621078255201912e-04 seconds.
Warning: Simulation tolerance relaxed to achieve convergence from 1.0621078255204712e-04 to 1.0621078255204812e-04 seconds.
Warning: Simulation tolerance relaxed to achieve convergence from 1.0621078255206513e-04 to 1.0621078255206613e-04 seconds.
Warning: Simulation tolerance relaxed to achieve convergence from 1.0621078255206814e-04 to 1.0621078255206914e-04 seconds.
Warning: Simulation tolerance relaxed to achieve convergence from 1.0621078255207917e-04 to 1.0621078255208017e-04 seconds.
Warning: Simulation tolerance relaxed to achieve convergence from 1.0621078255208017e-04 to 1.0621078255208117e-04 seconds.
Warning: Simulation tolerance relaxed to achieve convergence from 1.0621078255208117e-04 to 1.0621078255208218e-04 seconds.
Warning: Simulation tolerance relaxed to achieve convergence from 1.0621078255208218e-04 to 1.0621078255208318e-04 seconds.
Warning: Simulation tolerance relaxed to achieve convergence from 1.0621078255208318e-04 to 1.0621078255208418e-04 seconds.
Warning: Simulation tolerance relaxed to achieve convergence from 1.0621078255209719e-04 to 1.0621078255209820e-04 seconds.
Warning: Simulation tolerance relaxed to achieve convergence from 1.0621078255209920e-04 to 1.0621078255210020e-04 seconds.
Warning: Simulation tolerance relaxed to achieve convergence from 1.0621078255210020e-04 to 1.0621078255210121e-04 seconds.
Warning: Simulation tolerance relaxed to achieve convergence from 1.0621078255210121e-04 to 1.0621078255210221e-04 seconds.
Warning: Simulation tolerance relaxed to achieve convergence from 1.0621078255211122e-04 to 1.0621078255211222e-04 seconds.
Warning: Simulation tolerance relaxed to achieve convergence from 1.0621078255211222e-04 to 1.0621078255211323e-04 seconds.
Warning: Simulation tolerance relaxed to achieve convergence from 1.0621078255214526e-04 to 1.0621078255214627e-04 seconds.
Warning: Simulation tolerance relaxed to achieve convergence from 1.0621078255214827e-04 to 1.0621078255214928e-04 seconds.
Warning: Simulation tolerance relaxed to achieve convergence from 1.0621078255214928e-04 to 1.0621078255215028e-04 seconds.
Warning: Simulation tolerance relaxed to achieve convergence from 1.0621078255215028e-04 to 1.0621078255215128e-04 seconds.
Warning: Simulation tolerance relaxed to achieve convergence from 1.0621078255215128e-04 to 1.0621078255215228e-04 seconds.
Warning: Simulation tolerance relaxed to achieve convergence from 1.0621078255215228e-04 to 1.0621078255215329e-04 seconds.
Warning: Simulation tolerance relaxed to achieve convergence from 1.0621078255216029e-04 to 1.0621078255216130e-04 seconds.
Warning: Simulation tolerance relaxed to achieve convergence from 1.0621078255217031e-04 to 1.0621078255217131e-04 seconds.
Warning: Simulation tolerance relaxed to achieve convergence from 1.0621078255217332e-04 to 1.0621078255217432e-04 seconds.
Warning: Simulation tolerance relaxed to achieve convergence from 1.0621078255218333e-04 to 1.0621078255218434e-04 seconds.
Warning: Simulation tolerance relaxed to achieve convergence from 1.0621078255218634e-04 to 1.0621078255218734e-04 seconds.
Warning: Simulation tolerance relaxed to achieve convergence from 1.0621078255218734e-04 to 1.0621078255218835e-04 seconds.
Warning: Simulation tolerance relaxed to achieve convergence from 1.0621078255219035e-04 to 1.0621078255219136e-04 seconds.
Warning: Simulation tolerance relaxed to achieve convergence from 1.0621078255219537e-04 to 1.0621078255219637e-04 seconds.
Warning: Simulation tolerance relaxed to achieve convergence from 1.0621078255220439e-04 to 1.0621078255220540e-04 seconds.
Warning: Simulation tolerance relaxed to achieve convergence from 1.0621078255221341e-04 to 1.0621078255221441e-04 seconds.
Warning: Simulation tolerance relaxed to achieve convergence from 1.0621078255221742e-04 to 1.0621078255221842e-04 seconds.
Warning: Simulation tolerance relaxed to achieve convergence from 1.0621078255222143e-04 to 1.0621078255222243e-04 seconds.
Warning: Simulation tolerance relaxed to achieve convergence from 1.0621078255222544e-04 to 1.0621078255222644e-04 seconds.
Warning: Simulation tolerance relaxed to achieve convergence from 1.0621078255222845e-04 to 1.0621078255222945e-04 seconds.
Warning: Simulation tolerance relaxed to achieve convergence from 1.0621078255224848e-04 to 1.0621078255224948e-04 seconds.
Warning: Simulation tolerance relaxed to achieve convergence from 1.0621078255225349e-04 to 1.0621078255225450e-04 seconds.
Warning: Simulation tolerance relaxed to achieve convergence from 1.0621078255225751e-04 to 1.0621078255225851e-04 seconds.
Warning: Simulation tolerance relaxed to achieve convergence from 1.0621078255225851e-04 to 1.0621078255225951e-04 seconds.
Warning: Simulation tolerance relaxed to achieve convergence from 1.0621078255226352e-04 to 1.0621078255226453e-04 seconds.
Warning: Simulation tolerance relaxed to achieve convergence from 1.0621078255226453e-04 to 1.0621078255226553e-04 seconds.
Warning: Simulation tolerance relaxed to achieve convergence from 1.0621078255230054e-04 to 1.0621078255230154e-04 seconds.
Warning: Simulation tolerance relaxed to achieve convergence from 1.0621078255231455e-04 to 1.0621078255231555e-04 seconds.
Warning: Simulation tolerance relaxed to achieve convergence from 1.0621078255231655e-04 to 1.0621078255231756e-04 seconds.
Warning: Simulation tolerance relaxed to achieve convergence from 1.0621078255231756e-04 to 1.0621078255231856e-04 seconds.
Warning: Simulation tolerance relaxed to achieve convergence from 1.0621078255232257e-04 to 1.0621078255232357e-04 seconds.
Warning: Simulation tolerance relaxed to achieve convergence from 1.0621078255232458e-04 to 1.0621078255232558e-04 seconds.
Warning: Simulation tolerance relaxed to achieve convergence from 1.0621078255232759e-04 to 1.0621078255232859e-04 seconds.
Warning: Simulation tolerance relaxed to achieve convergence from 1.0621078255232859e-04 to 1.0621078255232959e-04 seconds.
Warning: Simulation tolerance relaxed to achieve convergence from 1.0621078255233661e-04 to 1.0621078255233762e-04 seconds.
Warning: Simulation tolerance relaxed to achieve convergence from 1.0621078255233762e-04 to 1.0621078255233862e-04 seconds.
Warning: Simulation tolerance relaxed to achieve convergence from 1.0621078255233962e-04 to 1.0621078255234062e-04 seconds.
Warning: Simulation tolerance relaxed to achieve convergence from 1.0621078255234062e-04 to 1.0621078255234163e-04 seconds.
Warning: Simulation tolerance relaxed to achieve convergence from 1.0621078255234764e-04 to 1.0621078255234865e-04 seconds.
Warning: Simulation tolerance relaxed to achieve convergence from 1.7035220128879452e-04 to 1.7035220128879553e-04 seconds.
Warning: Simulation tolerance relaxed to achieve convergence from 1.7035220128879853e-04 to 1.7035220128879954e-04 seconds.
Warning: Simulation tolerance relaxed to achieve convergence from 1.7035220128880555e-04 to 1.7035220128880656e-04 seconds.
Warning: Simulation tolerance relaxed to achieve convergence from 1.7035220128880656e-04 to 1.7035220128880756e-04 seconds.
Warning: Simulation tolerance relaxed to achieve convergence from 1.7035220128880756e-04 to 1.7035220128880856e-04 seconds.
Warning: Simulation tolerance relaxed to achieve convergence from 2.3125110106385084e-04 to 2.3125110106385184e-04 seconds.
Warning: Simulation tolerance relaxed to achieve convergence from 2.8429804706206659e-04 to 2.8429804706206756e-04 seconds.
Warning: Simulation tolerance relaxed to achieve convergence from 3.7288741846752682e-04 to 3.7288741846752780e-04 seconds.
Warning: Simulation tolerance relaxed to achieve convergence from 3.7288741846753479e-04 to 3.7288741846753577e-04 seconds.
Warning: Simulation tolerance relaxed to achieve convergence from 3.7288741846753972e-04 to 3.7288741846754070e-04 seconds.
Warning: Simulation tolerance relaxed to achieve convergence from 3.7288741846754070e-04 to 3.7288741846754167e-04 seconds.
Warning: Simulation tolerance relaxed to achieve convergence from 3.7288741846754368e-04 to 3.7288741846754466e-04 seconds.
Warning: Simulation tolerance relaxed to achieve convergence from 3.7288741846754661e-04 to 3.7288741846754758e-04 seconds.
Warning: Simulation tolerance relaxed to achieve convergence from 3.7288741846755647e-04 to 3.7288741846755745e-04 seconds.
Warning: Simulation tolerance relaxed to achieve convergence from 3.7288741846760434e-04 to 3.7288741846760532e-04 seconds.
Warning: Simulation tolerance relaxed to achieve convergence from 3.7288741846760927e-04 to 3.7288741846761025e-04 seconds.
Warning: Simulation tolerance relaxed to achieve convergence from 3.7288741846762218e-04 to 3.7288741846762315e-04 seconds.
Warning: Simulation tolerance relaxed to achieve convergence from 3.7288741846768522e-04 to 3.7288741846768620e-04 seconds.
Warning: Simulation tolerance relaxed to achieve convergence from 3.7288741846776513e-04 to 3.7288741846776610e-04 seconds.
Warning: Simulation tolerance relaxed to achieve convergence from 3.7288741846776610e-04 to 3.7288741846776708e-04 seconds.
Warning: Simulation tolerance relaxed to achieve convergence from 3.7288741846781717e-04 to 3.7288741846781815e-04 seconds.
Warning: Simulation tolerance relaxed to achieve convergence from 3.7288741846782416e-04 to 3.7288741846782514e-04 seconds.
Warning: Simulation tolerance relaxed to achieve convergence from 3.7288741846783408e-04 to 3.7288741846783506e-04 seconds.
Warning: Simulation tolerance relaxed to achieve convergence from 3.7288741846785696e-04 to 3.7288741846785794e-04 seconds.
Warning: Simulation tolerance relaxed to achieve convergence from 3.7288741846786086e-04 to 3.7288741846786184e-04 seconds.
Warning: Simulation tolerance relaxed to achieve convergence from 3.7288741846786184e-04 to 3.7288741846786282e-04 seconds.
Warning: Simulation tolerance relaxed to achieve convergence from 3.7288741846787181e-04 to 3.7288741846787279e-04 seconds.
Warning: Simulation tolerance relaxed to achieve convergence from 3.7288741846787870e-04 to 3.7288741846787967e-04 seconds.
Warning: Simulation tolerance relaxed to achieve convergence from 3.7288741846787967e-04 to 3.7288741846788065e-04 seconds.
Warning: Simulation tolerance relaxed to achieve convergence from 3.7288741846788266e-04 to 3.7288741846788363e-04 seconds.
Warning: Simulation tolerance relaxed to achieve convergence from 3.7288741846789155e-04 to 3.7288741846789252e-04 seconds.
Warning: Simulation tolerance relaxed to achieve convergence from 3.7288741846790250e-04 to 3.7288741846790347e-04 seconds.
Warning: Simulation tolerance relaxed to achieve convergence from 3.7288741846791041e-04 to 3.7288741846791139e-04 seconds.
Warning: Simulation tolerance relaxed to achieve convergence from 3.7288741846795421e-04 to 3.7288741846795519e-04 seconds.
Warning: Simulation tolerance relaxed to achieve convergence from 3.7288741846795817e-04 to 3.7288741846795915e-04 seconds.
Warning: Simulation tolerance relaxed to achieve convergence from 3.7288741846799417e-04 to 3.7288741846799514e-04 seconds.
Warning: Simulation tolerance relaxed to achieve convergence from 3.7288741846799715e-04 to 3.7288741846799812e-04 seconds.
Warning: Simulation tolerance relaxed to achieve convergence from 3.7288741846800013e-04 to 3.7288741846800111e-04 seconds.
Warning: Simulation tolerance relaxed to achieve convergence from 3.7288741846803493e-04 to 3.7288741846803591e-04 seconds.
Warning: Simulation tolerance relaxed to achieve convergence from 3.7288741846803688e-04 to 3.7288741846803786e-04 seconds.
Warning: Simulation tolerance relaxed to achieve convergence from 3.7288741846803884e-04 to 3.7288741846803981e-04 seconds.
Warning: Simulation tolerance relaxed to achieve convergence from 3.7288741846805271e-04 to 3.7288741846805369e-04 seconds.
Warning: Simulation tolerance relaxed to achieve convergence from 3.7288741846806166e-04 to 3.7288741846806263e-04 seconds.
Warning: Simulation tolerance relaxed to achieve convergence from 3.7288741846824863e-04 to 3.7288741846824960e-04 seconds.
Warning: Simulation tolerance relaxed to achieve convergence from 3.7288741846826348e-04 to 3.7288741846826446e-04 seconds.
Warning: Simulation tolerance relaxed to achieve convergence from 3.7288741846829742e-04 to 3.7288741846829839e-04 seconds.
Warning: Simulation tolerance relaxed to achieve convergence from 3.7288741846831742e-04 to 3.7288741846831840e-04 seconds.
Warning: Simulation tolerance relaxed to achieve convergence from 3.7288741846832235e-04 to 3.7288741846832333e-04 seconds.
Warning: Simulation tolerance relaxed to achieve convergence from 3.7288741846832431e-04 to 3.7288741846832528e-04 seconds.
Warning: Simulation tolerance relaxed to achieve convergence from 3.7288741846835911e-04 to 3.7288741846836008e-04 seconds.
Warning: Simulation tolerance relaxed to achieve convergence from 3.7288741846836008e-04 to 3.7288741846836106e-04 seconds.
Warning: Simulation tolerance relaxed to achieve convergence from 3.7288741846837201e-04 to 3.7288741846837299e-04 seconds.
Warning: Simulation tolerance relaxed to achieve convergence from 3.7288741846837299e-04 to 3.7288741846837396e-04 seconds.
Warning: Simulation tolerance relaxed to achieve convergence from 3.7288741846839700e-04 to 3.7288741846839798e-04 seconds.
Warning: Simulation tolerance relaxed to achieve convergence from 3.7288741846840893e-04 to 3.7288741846840990e-04 seconds.
Warning: Simulation tolerance relaxed to achieve convergence from 3.7288741846841191e-04 to 3.7288741846841289e-04 seconds.
Warning: Simulation tolerance relaxed to achieve convergence from 3.7288741846847490e-04 to 3.7288741846847588e-04 seconds.
Warning: Simulation tolerance relaxed to achieve convergence from 3.7288741846851382e-04 to 3.7288741846851480e-04 seconds.
Warning: Simulation tolerance relaxed to achieve convergence from 3.7288741846852477e-04 to 3.7288741846852575e-04 seconds.
Warning: Simulation tolerance relaxed to achieve convergence from 3.7288741846852575e-04 to 3.7288741846852673e-04 seconds.
Warning: Simulation tolerance relaxed to achieve convergence from 3.7288741846853459e-04 to 3.7288741846853556e-04 seconds.
Warning: Simulation tolerance relaxed to achieve convergence from 3.7288741846853556e-04 to 3.7288741846853654e-04 seconds.
Warning: Simulation tolerance relaxed to achieve convergence from 3.7288741846853854e-04 to 3.7288741846853952e-04 seconds.
Warning: Simulation tolerance relaxed to achieve convergence from 3.7288741846853952e-04 to 3.7288741846854050e-04 seconds.
Warning: Simulation tolerance relaxed to achieve convergence from 3.7288741846854050e-04 to 3.7288741846854147e-04 seconds.
Warning: Simulation tolerance relaxed to achieve convergence from 3.7288741846854543e-04 to 3.7288741846854640e-04 seconds.
Warning: Simulation tolerance relaxed to achieve convergence from 3.7288741846855540e-04 to 3.7288741846855638e-04 seconds.
Warning: Simulation tolerance relaxed to achieve convergence from 3.7288741846856332e-04 to 3.7288741846856429e-04 seconds.
Warning: Simulation tolerance relaxed to achieve convergence from 3.7288741846857031e-04 to 3.7288741846857129e-04 seconds.
Warning: Simulation tolerance relaxed to achieve convergence from 3.7288741846861834e-04 to 3.7288741846861932e-04 seconds.
Warning: Simulation tolerance relaxed to achieve convergence from 3.7288741846861932e-04 to 3.7288741846862029e-04 seconds.
Warning: Simulation tolerance relaxed to achieve convergence from 3.7288741846862918e-04 to 3.7288741846863016e-04 seconds.
Warning: Simulation tolerance relaxed to achieve convergence from 3.7288741846863309e-04 to 3.7288741846863406e-04 seconds.
Warning: Simulation tolerance relaxed to achieve convergence from 3.7288741846864106e-04 to 3.7288741846864203e-04 seconds.
Warning: Simulation tolerance relaxed to achieve convergence from 3.7288741846864805e-04 to 3.7288741846864902e-04 seconds.
Warning: Simulation tolerance relaxed to achieve convergence from 3.7288741846871088e-04 to 3.7288741846871185e-04 seconds.
Warning: Simulation tolerance relaxed to achieve convergence from 3.7288741846903088e-04 to 3.7288741846903186e-04 seconds.
Warning: Simulation tolerance relaxed to achieve convergence from 3.7288741846903581e-04 to 3.7288741846903679e-04 seconds.
Warning: Simulation tolerance relaxed to achieve convergence from 3.7288741846906682e-04 to 3.7288741846906780e-04 seconds.
Warning: Simulation tolerance relaxed to achieve convergence from 3.7288741846906780e-04 to 3.7288741846906877e-04 seconds.
Warning: Simulation tolerance relaxed to achieve convergence from 3.7288741846906877e-04 to 3.7288741846906975e-04 seconds.
Warning: Simulation tolerance relaxed to achieve convergence from 3.7288741846908368e-04 to 3.7288741846908466e-04 seconds.
Warning: Simulation tolerance relaxed to achieve convergence from 3.7288741846908563e-04 to 3.7288741846908661e-04 seconds.
Warning: Simulation tolerance relaxed to achieve convergence from 3.7288741846908661e-04 to 3.7288741846908758e-04 seconds.
Warning: Simulation tolerance relaxed to achieve convergence from 3.7288741846908959e-04 to 3.7288741846909057e-04 seconds.
Warning: Simulation tolerance relaxed to achieve convergence from 3.7288741846911458e-04 to 3.7288741846911556e-04 seconds.
Warning: Simulation tolerance relaxed to achieve convergence from 3.7288741846912450e-04 to 3.7288741846912548e-04 seconds.
Warning: Simulation tolerance relaxed to achieve convergence from 3.7288741846913144e-04 to 3.7288741846913242e-04 seconds.
Warning: Simulation tolerance relaxed to achieve convergence from 3.7288741846913339e-04 to 3.7288741846913437e-04 seconds.
Warning: Simulation tolerance relaxed to achieve convergence from 3.7288741846913534e-04 to 3.7288741846913632e-04 seconds.
Warning: Simulation tolerance relaxed to achieve convergence from 3.7288741846915237e-04 to 3.7288741846915334e-04 seconds.
Warning: Simulation tolerance relaxed to achieve convergence from 3.7288741846915936e-04 to 3.7288741846916033e-04 seconds.
Warning: Simulation tolerance relaxed to achieve convergence from 3.7288741846918516e-04 to 3.7288741846918614e-04 seconds.
Warning: Simulation tolerance relaxed to achieve convergence from 3.7288741846922398e-04 to 3.7288741846922495e-04 seconds.
Warning: Simulation tolerance relaxed to achieve convergence from 3.7288741846925580e-04 to 3.7288741846925677e-04 seconds.
Warning: Simulation tolerance relaxed to achieve convergence from 3.7288741846925677e-04 to 3.7288741846925775e-04 seconds.
Warning: Simulation tolerance relaxed to achieve convergence from 3.7288741846928778e-04 to 3.7288741846928876e-04 seconds.
Warning: Simulation tolerance relaxed to achieve convergence from 3.7288741846928973e-04 to 3.7288741846929071e-04 seconds.
Warning: Simulation tolerance relaxed to achieve convergence from 3.7288741846929364e-04 to 3.7288741846929461e-04 seconds.
Warning: Simulation tolerance relaxed to achieve convergence from 3.7288741846930459e-04 to 3.7288741846930556e-04 seconds.
Warning: Simulation tolerance relaxed to achieve convergence from 3.7288741846931847e-04 to 3.7288741846931944e-04 seconds.
Warning: Simulation tolerance relaxed to achieve convergence from 3.7288741846931944e-04 to 3.7288741846932042e-04 seconds.
Warning: Simulation tolerance relaxed to achieve convergence from 3.7288741846932936e-04 to 3.7288741846933034e-04 seconds.
Warning: Simulation tolerance relaxed to achieve convergence from 3.7288741846933532e-04 to 3.7288741846933630e-04 seconds.
Warning: Simulation tolerance relaxed to achieve convergence from 3.7288741846937327e-04 to 3.7288741846937425e-04 seconds.
Warning: Simulation tolerance relaxed to achieve convergence from 3.7288741846941111e-04 to 3.7288741846941209e-04 seconds.
Warning: Simulation tolerance relaxed to achieve convergence from 3.7288741846941908e-04 to 3.7288741846942005e-04 seconds.
Warning: Simulation tolerance relaxed to achieve convergence from 3.7288741846942607e-04 to 3.7288741846942705e-04 seconds.
Warning: Simulation tolerance relaxed to achieve convergence from 3.7288741846943204e-04 to 3.7288741846943301e-04 seconds.
Warning: Simulation tolerance relaxed to achieve convergence from 3.7288741846943496e-04 to 3.7288741846943594e-04 seconds.
Warning: Simulation tolerance relaxed to achieve convergence from 3.7288741846943691e-04 to 3.7288741846943789e-04 seconds.
Warning: Simulation tolerance relaxed to achieve convergence from 3.7288741846945193e-04 to 3.7288741846945291e-04 seconds.
Warning: Simulation tolerance relaxed to achieve convergence from 3.7288741846949091e-04 to 3.7288741846949188e-04 seconds.
Warning: Simulation tolerance relaxed to achieve convergence from 3.7288741846949486e-04 to 3.7288741846949584e-04 seconds.
Warning: Simulation tolerance relaxed to achieve convergence from 3.7288741846949785e-04 to 3.7288741846949882e-04 seconds.
Warning: Simulation tolerance relaxed to achieve convergence from 3.7288741846952880e-04 to 3.7288741846952978e-04 seconds.
Warning: Simulation tolerance relaxed to achieve convergence from 3.7288741846955786e-04 to 3.7288741846955883e-04 seconds.
Warning: Simulation tolerance relaxed to achieve convergence from 3.7288741846956783e-04 to 3.7288741846956881e-04 seconds.
Warning: Simulation tolerance relaxed to achieve convergence from 3.7288741846956881e-04 to 3.7288741846956978e-04 seconds.
Warning: Simulation tolerance relaxed to achieve convergence from 3.7288741846956978e-04 to 3.7288741846957076e-04 seconds.
Warning: Simulation tolerance relaxed to achieve convergence from 3.7288741846957678e-04 to 3.7288741846957775e-04 seconds.
Warning: Simulation tolerance relaxed to achieve convergence from 3.7288741846957970e-04 to 3.7288741846958068e-04 seconds.
Warning: Simulation tolerance relaxed to achieve convergence from 3.7288741846960860e-04 to 3.7288741846960957e-04 seconds.
Warning: Simulation tolerance relaxed to achieve convergence from 3.7288741846962150e-04 to 3.7288741846962248e-04 seconds.
Warning: Simulation tolerance relaxed to achieve convergence from 3.7288741846962345e-04 to 3.7288741846962443e-04 seconds.
Warning: Simulation tolerance relaxed to achieve convergence from 3.7288741846965039e-04 to 3.7288741846965137e-04 seconds.
Warning: Simulation tolerance relaxed to achieve convergence from 3.8097186077512324e-04 to 3.8097186077512422e-04 seconds.
Warning: Simulation tolerance relaxed to achieve convergence from 3.8097186077512519e-04 to 3.8097186077512617e-04 seconds.
Warning: Simulation tolerance relaxed to achieve convergence from 3.8097186077514221e-04 to 3.8097186077514319e-04 seconds.
Warning: Simulation tolerance relaxed to achieve convergence from 3.8097186077514416e-04 to 3.8097186077514514e-04 seconds.
Warning: Simulation tolerance relaxed to achieve convergence from 3.8097186077517913e-04 to 3.8097186077518011e-04 seconds.
Warning: Simulation tolerance relaxed to achieve convergence from 3.8097186077518011e-04 to 3.8097186077518108e-04 seconds.
Warning: Simulation tolerance relaxed to achieve convergence from 3.8097186077518309e-04 to 3.8097186077518406e-04 seconds.
Warning: Simulation tolerance relaxed to achieve convergence from 3.8097186077518406e-04 to 3.8097186077518504e-04 seconds.
Warning: Simulation tolerance relaxed to achieve convergence from 3.8097186077519501e-04 to 3.8097186077519599e-04 seconds.
Warning: Simulation tolerance relaxed to achieve convergence from 3.8097186077519995e-04 to 3.8097186077520092e-04 seconds.
Warning: Simulation tolerance relaxed to achieve convergence from 3.8097186077521670e-04 to 3.8097186077521767e-04 seconds.
Warning: Simulation tolerance relaxed to achieve convergence from 3.8097186077522158e-04 to 3.8097186077522255e-04 seconds.
Warning: Simulation tolerance relaxed to achieve convergence from 3.8097186077524261e-04 to 3.8097186077524359e-04 seconds.
Warning: Simulation tolerance relaxed to achieve convergence from 3.8097186077524554e-04 to 3.8097186077524651e-04 seconds.
Warning: Simulation tolerance relaxed to achieve convergence from 3.8097186077524651e-04 to 3.8097186077524749e-04 seconds.
Warning: Simulation tolerance relaxed to achieve convergence from 3.8097186077525351e-04 to 3.8097186077525448e-04 seconds.
Warning: Simulation tolerance relaxed to achieve convergence from 3.8097186077525448e-04 to 3.8097186077525546e-04 seconds.
Warning: Simulation tolerance relaxed to achieve convergence from 3.8097186077525546e-04 to 3.8097186077525643e-04 seconds.
Warning: Simulation tolerance relaxed to achieve convergence from 3.8097186077527047e-04 to 3.8097186077527145e-04 seconds.
Warning: Simulation tolerance relaxed to achieve convergence from 3.8097186077527243e-04 to 3.8097186077527340e-04 seconds.
Warning: Simulation tolerance relaxed to achieve convergence from 3.8097186077527340e-04 to 3.8097186077527438e-04 seconds.
Warning: Simulation tolerance relaxed to achieve convergence from 3.8097186077527438e-04 to 3.8097186077527535e-04 seconds.
Warning: Simulation tolerance relaxed to achieve convergence from 3.8097186077527736e-04 to 3.8097186077527833e-04 seconds.
Warning: Simulation tolerance relaxed to achieve convergence from 3.8097186077528029e-04 to 3.8097186077528126e-04 seconds.
Warning: Simulation tolerance relaxed to achieve convergence from 3.8097186077528728e-04 to 3.8097186077528825e-04 seconds.
Warning: Simulation tolerance relaxed to achieve convergence from 3.8097186077529124e-04 to 3.8097186077529221e-04 seconds.
Warning: Simulation tolerance relaxed to achieve convergence from 3.8097186077529221e-04 to 3.8097186077529319e-04 seconds.
Warning: Simulation tolerance relaxed to achieve convergence from 3.8097186077530219e-04 to 3.8097186077530316e-04 seconds.
Warning: Simulation tolerance relaxed to achieve convergence from 3.8097186077530316e-04 to 3.8097186077530414e-04 seconds.
Warning: Simulation tolerance relaxed to achieve convergence from 3.8097186077530907e-04 to 3.8097186077531005e-04 seconds.
Warning: Simulation tolerance relaxed to achieve convergence from 3.8097186077531905e-04 to 3.8097186077532002e-04 seconds.
Warning: Simulation tolerance relaxed to achieve convergence from 3.8097186077532002e-04 to 3.8097186077532100e-04 seconds.
Warning: Simulation tolerance relaxed to achieve convergence from 3.8097186077532100e-04 to 3.8097186077532197e-04 seconds.
Warning: Simulation tolerance relaxed to achieve convergence from 3.8097186077532197e-04 to 3.8097186077532295e-04 seconds.
Warning: Simulation tolerance relaxed to achieve convergence from 3.8097186077535304e-04 to 3.8097186077535401e-04 seconds.
Warning: Simulation tolerance relaxed to achieve convergence from 3.8097186077536296e-04 to 3.8097186077536393e-04 seconds.
Warning: Simulation tolerance relaxed to achieve convergence from 3.8097186077536789e-04 to 3.8097186077536887e-04 seconds.
Warning: Simulation tolerance relaxed to achieve convergence from 3.8097186077539386e-04 to 3.8097186077539483e-04 seconds.
Warning: Simulation tolerance relaxed to achieve convergence from 3.8097186077539684e-04 to 3.8097186077539781e-04 seconds.
Warning: Simulation tolerance relaxed to achieve convergence from 3.8097186077539977e-04 to 3.8097186077540074e-04 seconds.
Warning: Simulation tolerance relaxed to achieve convergence from 3.8097186077540372e-04 to 3.8097186077540470e-04 seconds.
Warning: Simulation tolerance relaxed to achieve convergence from 3.8097186077540670e-04 to 3.8097186077540768e-04 seconds.
Warning: Simulation tolerance relaxed to achieve convergence from 3.8097186077540866e-04 to 3.8097186077540963e-04 seconds.
Warning: Simulation tolerance relaxed to achieve convergence from 3.8097186077543066e-04 to 3.8097186077543164e-04 seconds.
Warning: Simulation tolerance relaxed to achieve convergence from 3.8097186077543164e-04 to 3.8097186077543262e-04 seconds.
Warning: Simulation tolerance relaxed to achieve convergence from 3.8097186077543262e-04 to 3.8097186077543359e-04 seconds.
Warning: Simulation tolerance relaxed to achieve convergence from 3.8097186077543359e-04 to 3.8097186077543457e-04 seconds.
Warning: Simulation tolerance relaxed to achieve convergence from 3.8097186077543457e-04 to 3.8097186077543554e-04 seconds.
Warning: Simulation tolerance relaxed to achieve convergence from 3.8097186077543950e-04 to 3.8097186077544048e-04 seconds.
Warning: Simulation tolerance relaxed to achieve convergence from 3.8097186077546151e-04 to 3.8097186077546249e-04 seconds.
Warning: Simulation tolerance relaxed to achieve convergence from 3.8097186077546249e-04 to 3.8097186077546346e-04 seconds.
Warning: Simulation tolerance relaxed to achieve convergence from 3.8097186077547046e-04 to 3.8097186077547143e-04 seconds.
Warning: Simulation tolerance relaxed to achieve convergence from 3.8097186077547143e-04 to 3.8097186077547241e-04 seconds.
Warning: Simulation tolerance relaxed to achieve convergence from 3.8097186077550341e-04 to 3.8097186077550439e-04 seconds.
Warning: Simulation tolerance relaxed to achieve convergence from 3.8097186077550439e-04 to 3.8097186077550537e-04 seconds.
Warning: Simulation tolerance relaxed to achieve convergence from 3.8097186077550732e-04 to 3.8097186077550829e-04 seconds.
Warning: Simulation tolerance relaxed to achieve convergence from 3.8097186077554321e-04 to 3.8097186077554418e-04 seconds.
Warning: Simulation tolerance relaxed to achieve convergence from 3.8097186077555616e-04 to 3.8097186077555714e-04 seconds.
Warning: Simulation tolerance relaxed to achieve convergence from 3.8097186077555714e-04 to 3.8097186077555811e-04 seconds.
Warning: Simulation tolerance relaxed to achieve convergence from 3.8097186077556006e-04 to 3.8097186077556104e-04 seconds.
Warning: Simulation tolerance relaxed to achieve convergence from 3.8097186077569900e-04 to 3.8097186077569998e-04 seconds.
Warning: Simulation tolerance relaxed to achieve convergence from 3.8097186077569998e-04 to 3.8097186077570096e-04 seconds.
Warning: Simulation tolerance relaxed to achieve convergence from 3.8097186077570193e-04 to 3.8097186077570291e-04 seconds.
Warning: Simulation tolerance relaxed to achieve convergence from 3.8097186077570388e-04 to 3.8097186077570486e-04 seconds.
Warning: Simulation tolerance relaxed to achieve convergence from 3.8097186077570486e-04 to 3.8097186077570584e-04 seconds.
Warning: Simulation tolerance relaxed to achieve convergence from 3.8097186077572383e-04 to 3.8097186077572481e-04 seconds.
Warning: Simulation tolerance relaxed to achieve convergence from 3.8097186077572481e-04 to 3.8097186077572578e-04 seconds.
Warning: Simulation tolerance relaxed to achieve convergence from 3.8097186077572578e-04 to 3.8097186077572676e-04 seconds.
Warning: Simulation tolerance relaxed to achieve convergence from 3.8097186077573272e-04 to 3.8097186077573370e-04 seconds.
Warning: Simulation tolerance relaxed to achieve convergence from 3.8097186077573565e-04 to 3.8097186077573663e-04 seconds.
Warning: Simulation tolerance relaxed to achieve convergence from 3.8097186077573863e-04 to 3.8097186077573961e-04 seconds.
Warning: Simulation tolerance relaxed to achieve convergence from 3.8097186077574958e-04 to 3.8097186077575056e-04 seconds.
Warning: Simulation tolerance relaxed to achieve convergence from 3.8097186077575641e-04 to 3.8097186077575739e-04 seconds.
Warning: Simulation tolerance relaxed to achieve convergence from 3.8097186077576037e-04 to 3.8097186077576135e-04 seconds.
Warning: Simulation tolerance relaxed to achieve convergence from 3.8097186077576335e-04 to 3.8097186077576433e-04 seconds.
Warning: Simulation tolerance relaxed to achieve convergence from 3.8097186077576726e-04 to 3.8097186077576823e-04 seconds.
Warning: Simulation tolerance relaxed to achieve convergence from 3.8097186077577522e-04 to 3.8097186077577620e-04 seconds.
Warning: Simulation tolerance relaxed to achieve convergence from 3.8097186077577620e-04 to 3.8097186077577718e-04 seconds.
Warning: Simulation tolerance relaxed to achieve convergence from 3.8097186077577718e-04 to 3.8097186077577815e-04 seconds.
Warning: Simulation tolerance relaxed to achieve convergence from 3.8097186077578514e-04 to 3.8097186077578612e-04 seconds.
Warning: Simulation tolerance relaxed to achieve convergence from 3.8097186077578813e-04 to 3.8097186077578910e-04 seconds.
Warning: Simulation tolerance relaxed to achieve convergence from 3.8097186077579208e-04 to 3.8097186077579306e-04 seconds.
Warning: Simulation tolerance relaxed to achieve convergence from 3.8097186077580705e-04 to 3.8097186077580802e-04 seconds.
Warning: Simulation tolerance relaxed to achieve convergence from 3.8097186077593607e-04 to 3.8097186077593704e-04 seconds.
Warning: Simulation tolerance relaxed to achieve convergence from 3.8097186077594002e-04 to 3.8097186077594100e-04 seconds.
Warning: Simulation tolerance relaxed to achieve convergence from 3.8097186077594702e-04 to 3.8097186077594799e-04 seconds.
Warning: Simulation tolerance relaxed to achieve convergence from 3.8097186077595097e-04 to 3.8097186077595195e-04 seconds.
Warning: Simulation tolerance relaxed to achieve convergence from 3.8097186077595195e-04 to 3.8097186077595293e-04 seconds.
Warning: Simulation tolerance relaxed to achieve convergence from 3.8097186077595293e-04 to 3.8097186077595390e-04 seconds.
Warning: Simulation tolerance relaxed to achieve convergence from 3.8097186077595992e-04 to 3.8097186077596089e-04 seconds.
Warning: Simulation tolerance relaxed to achieve convergence from 3.8097186077596290e-04 to 3.8097186077596388e-04 seconds.
Warning: Simulation tolerance relaxed to achieve convergence from 3.8097186077598090e-04 to 3.8097186077598187e-04 seconds.
Warning: Simulation tolerance relaxed to achieve convergence from 3.8097186077598285e-04 to 3.8097186077598382e-04 seconds.
Warning: Simulation tolerance relaxed to achieve convergence from 3.8097186077600079e-04 to 3.8097186077600177e-04 seconds.
Warning: Simulation tolerance relaxed to achieve convergence from 3.8097186077600177e-04 to 3.8097186077600274e-04 seconds.
Warning: Simulation tolerance relaxed to achieve convergence from 3.8097186077600974e-04 to 3.8097186077601071e-04 seconds.
Warning: Simulation tolerance relaxed to achieve convergence from 3.8097186077601071e-04 to 3.8097186077601169e-04 seconds.
Warning: Simulation tolerance relaxed to achieve convergence from 3.8097186077601169e-04 to 3.8097186077601266e-04 seconds.
Warning: Simulation tolerance relaxed to achieve convergence from 3.8097186077601364e-04 to 3.8097186077601462e-04 seconds.
Warning: Simulation tolerance relaxed to achieve convergence from 3.8097186077601462e-04 to 3.8097186077601559e-04 seconds.
Warning: Simulation tolerance relaxed to achieve convergence from 3.8097186077601559e-04 to 3.8097186077601657e-04 seconds.
Warning: Simulation tolerance relaxed to achieve convergence from 3.8097186077601657e-04 to 3.8097186077601754e-04 seconds.
Warning: Simulation tolerance relaxed to achieve convergence from 3.8097186077601852e-04 to 3.8097186077601950e-04 seconds.
Warning: Simulation tolerance relaxed to achieve convergence from 3.8097186077602551e-04 to 3.8097186077602649e-04 seconds.
Warning: Simulation tolerance relaxed to achieve convergence from 3.8097186077602947e-04 to 3.8097186077603045e-04 seconds.
Warning: Simulation tolerance relaxed to achieve convergence from 3.8097186077603045e-04 to 3.8097186077603142e-04 seconds.
Warning: Simulation tolerance relaxed to achieve convergence from 3.8097186077603440e-04 to 3.8097186077603538e-04 seconds.
Warning: Simulation tolerance relaxed to achieve convergence from 3.8097186077603538e-04 to 3.8097186077603635e-04 seconds.
Warning: Simulation tolerance relaxed to achieve convergence from 3.8097186077603635e-04 to 3.8097186077603733e-04 seconds.
Warning: Simulation tolerance relaxed to achieve convergence from 3.8097186077603733e-04 to 3.8097186077603831e-04 seconds.
Warning: Simulation tolerance relaxed to achieve convergence from 3.8097186077604530e-04 to 3.8097186077604627e-04 seconds.
Warning: Simulation tolerance relaxed to achieve convergence from 3.8097186077607728e-04 to 3.8097186077607826e-04 seconds.
Warning: Simulation tolerance relaxed to achieve convergence from 3.8097186077608021e-04 to 3.8097186077608119e-04 seconds.
Warning: Simulation tolerance relaxed to achieve convergence from 3.8097186077608720e-04 to 3.8097186077608818e-04 seconds.
Warning: Simulation tolerance relaxed to achieve convergence from 3.8097186077609420e-04 to 3.8097186077609517e-04 seconds.
Warning: Simulation tolerance relaxed to achieve convergence from 3.8097186077609517e-04 to 3.8097186077609615e-04 seconds.
Warning: Simulation tolerance relaxed to achieve convergence from 3.8097186077611610e-04 to 3.8097186077611707e-04 seconds.
Warning: Simulation tolerance relaxed to achieve convergence from 3.8097186077611707e-04 to 3.8097186077611805e-04 seconds.
Warning: Simulation tolerance relaxed to achieve convergence from 3.8097186077612000e-04 to 3.8097186077612098e-04 seconds.
Warning: Simulation tolerance relaxed to achieve convergence from 3.8097186077612098e-04 to 3.8097186077612195e-04 seconds.
Warning: Simulation tolerance relaxed to achieve convergence from 3.8097186077612797e-04 to 3.8097186077612895e-04 seconds.
Warning: Simulation tolerance relaxed to achieve convergence from 3.8097186077613090e-04 to 3.8097186077613187e-04 seconds.
Warning: Simulation tolerance relaxed to achieve convergence from 3.8097186077613187e-04 to 3.8097186077613285e-04 seconds.
Warning: Simulation tolerance relaxed to achieve convergence from 3.8097186077613382e-04 to 3.8097186077613480e-04 seconds.
Warning: Simulation tolerance relaxed to achieve convergence from 3.8097186077613480e-04 to 3.8097186077613578e-04 seconds.
Warning: Simulation tolerance relaxed to achieve convergence from 3.8097186077613578e-04 to 3.8097186077613675e-04 seconds.
Warning: Simulation tolerance relaxed to achieve convergence from 3.8097186077613973e-04 to 3.8097186077614071e-04 seconds.
Warning: Simulation tolerance relaxed to achieve convergence from 3.8097186077614168e-04 to 3.8097186077614266e-04 seconds.
Warning: Simulation tolerance relaxed to achieve convergence from 3.8097186077614364e-04 to 3.8097186077614461e-04 seconds.
Warning: Simulation tolerance relaxed to achieve convergence from 3.8097186077614662e-04 to 3.8097186077614759e-04 seconds.
Warning: Simulation tolerance relaxed to achieve convergence from 3.8097186077614759e-04 to 3.8097186077614857e-04 seconds.
Warning: Simulation tolerance relaxed to achieve convergence from 3.8097186077614955e-04 to 3.8097186077615052e-04 seconds.
[...]
Warning: Simulation tolerance relaxed to achieve convergence from 9.8112125236347048e-02 to 9.8112125236347145e-02 seconds.
Warning: Simulation tolerance relaxed to achieve convergence from 9.8112125236347242e-02 to 9.8112125236347339e-02 seconds.
Warning: Simulation tolerance relaxed to achieve convergence from 9.8112125236347728e-02 to 9.8112125236347825e-02 seconds.
Warning: Simulation tolerance relaxed to achieve convergence from 9.8112125236396328e-02 to 9.8112125236396425e-02 seconds.
Warning: Simulation tolerance relaxed to achieve convergence from 9.8112125236396425e-02 to 9.8112125236396522e-02 seconds.
Warning: Simulation tolerance relaxed to achieve convergence from 9.8112125236396716e-02 to 9.8112125236396813e-02 seconds.
Warning: Simulation tolerance relaxed to achieve convergence from 9.8112125236398895e-02 to 9.8112125236398992e-02 seconds.
Warning: Simulation tolerance relaxed to achieve convergence from 9.8112125236401990e-02 to 9.8112125236402087e-02 seconds.
Warning: Simulation tolerance relaxed to achieve convergence from 9.8112125236403169e-02 to 9.8112125236403266e-02 seconds.
Warning: Simulation tolerance relaxed to achieve convergence from 9.8112125236403266e-02 to 9.8112125236403364e-02 seconds.
Warning: Simulation tolerance relaxed to achieve convergence from 9.8112125242607179e-02 to 9.8112125242607276e-02 seconds.
Warning: Simulation tolerance relaxed to achieve convergence from 9.8112125242607373e-02 to 9.8112125242607470e-02 seconds.
Warning: Simulation tolerance relaxed to achieve convergence from 9.8112125249464582e-02 to 9.8112125249464679e-02 seconds.
Warning: Simulation tolerance relaxed to achieve convergence from 9.8112125249470730e-02 to 9.8112125249470827e-02 seconds.
Warning: Simulation tolerance relaxed to achieve convergence from 9.8321494793292136e-02 to 9.8321494793292233e-02 seconds.
Warning: Simulation tolerance relaxed to achieve convergence from 9.8467614768947526e-02 to 9.8467614768947623e-02 seconds.
Warning: Simulation tolerance relaxed to achieve convergence from 9.8467614768947623e-02 to 9.8467614768947720e-02 seconds.
Warning: Simulation tolerance relaxed to achieve convergence from 9.8467614768947914e-02 to 9.8467614768948011e-02 seconds.
Warning: Simulation tolerance relaxed to achieve convergence from 9.8467614768948886e-02 to 9.8467614768948983e-02 seconds.
Warning: Simulation tolerance relaxed to achieve convergence from 9.8467614768948983e-02 to 9.8467614768949080e-02 seconds.
Warning: Simulation tolerance relaxed to achieve convergence from 9.8467614768949677e-02 to 9.8467614768949774e-02 seconds.
Warning: Simulation tolerance relaxed to achieve convergence from 9.8467614768949968e-02 to 9.8467614768950065e-02 seconds.
Warning: Simulation tolerance relaxed to achieve convergence from 9.8532296041778378e-02 to 9.8532296041778475e-02 seconds.
Warning: Simulation tolerance relaxed to achieve convergence from 9.8555808384216528e-02 to 9.8555808384216625e-02 seconds.
Warning: Simulation tolerance relaxed to achieve convergence from 9.8555808384224702e-02 to 9.8555808384224800e-02 seconds.
Warning: Simulation tolerance relaxed to achieve convergence from 9.8645111300522087e-02 to 9.8645111300522184e-02 seconds.
Warning: Simulation tolerance relaxed to achieve convergence from 9.8645111300522476e-02 to 9.8645111300522573e-02 seconds.
Warning: Simulation tolerance relaxed to achieve convergence from 9.8645111300524557e-02 to 9.8645111300524654e-02 seconds.
Warning: Simulation tolerance relaxed to achieve convergence from 9.8749245786135323e-02 to 9.8749245786135420e-02 seconds.
Warning: Simulation tolerance relaxed to achieve convergence from 9.8749245786136697e-02 to 9.8749245786136794e-02 seconds.
Warning: Simulation tolerance relaxed to achieve convergence from 9.8830642530782553e-02 to 9.8830642530782650e-02 seconds.
Warning: Simulation tolerance relaxed to achieve convergence from 9.8830642530786147e-02 to 9.8830642530786245e-02 seconds.
Warning: Simulation tolerance relaxed to achieve convergence from 9.8830642537656943e-02 to 9.8830642537657040e-02 seconds.
Warning: Simulation tolerance relaxed to achieve convergence from 9.8830642537657734e-02 to 9.8830642537657831e-02 seconds.
Warning: Simulation tolerance relaxed to achieve convergence from 9.8830642537657831e-02 to 9.8830642537657928e-02 seconds.
Warning: Simulation tolerance relaxed to achieve convergence from 9.8830642537658914e-02 to 9.8830642537659011e-02 seconds.
Warning: Simulation tolerance relaxed to achieve convergence from 9.8830642537660593e-02 to 9.8830642537660690e-02 seconds.
Warning: Simulation tolerance relaxed to achieve convergence from 9.9020484063799125e-02 to 9.9020484063799222e-02 seconds.
Warning: Simulation tolerance relaxed to achieve convergence from 9.9121164566438949e-02 to 9.9121164566439046e-02 seconds.
Warning: Simulation tolerance relaxed to achieve convergence from 9.9177627833145376e-02 to 9.9177627833145474e-02 seconds.
Warning: Simulation tolerance relaxed to achieve convergence from 9.9177627833160267e-02 to 9.9177627833160364e-02 seconds.
Warning: Simulation tolerance relaxed to achieve convergence from 9.9177627833160559e-02 to 9.9177627833160656e-02 seconds.
Warning: Simulation tolerance relaxed to achieve convergence from 9.9193770660035596e-02 to 9.9193770660035693e-02 seconds.
Warning: Simulation tolerance relaxed to achieve convergence from 9.9193770660035888e-02 to 9.9193770660035985e-02 seconds.
Warning: Simulation tolerance relaxed to achieve convergence from 9.9193770660039385e-02 to 9.9193770660039482e-02 seconds.
Warning: Simulation tolerance relaxed to achieve convergence from 9.9193770660039871e-02 to 9.9193770660039968e-02 seconds.
Warning: Simulation tolerance relaxed to achieve convergence from 9.9193770660040939e-02 to 9.9193770660041036e-02 seconds.
Warning: Simulation tolerance relaxed to achieve convergence from 9.9193770660041231e-02 to 9.9193770660041328e-02 seconds.
Warning: Simulation tolerance relaxed to achieve convergence from 9.9193770660041425e-02 to 9.9193770660041522e-02 seconds.
Warning: Simulation tolerance relaxed to achieve convergence from 9.9193770660041813e-02 to 9.9193770660041911e-02 seconds.
Warning: Simulation tolerance relaxed to achieve convergence from 9.9193770660042105e-02 to 9.9193770660042202e-02 seconds.
Warning: Simulation tolerance relaxed to achieve convergence from 9.9193770660042396e-02 to 9.9193770660042493e-02 seconds.
Warning: Simulation tolerance relaxed to achieve convergence from 9.9242248966310162e-02 to 9.9242248966310259e-02 seconds.
Warning: Simulation tolerance relaxed to achieve convergence from 9.9242248966311342e-02 to 9.9242248966311439e-02 seconds.
Warning: Simulation tolerance relaxed to achieve convergence from 9.9242248966313187e-02 to 9.9242248966313285e-02 seconds.
Warning: Simulation tolerance relaxed to achieve convergence from 9.9242248966313285e-02 to 9.9242248966313382e-02 seconds.
Warning: Simulation tolerance relaxed to achieve convergence from 9.9242248966313576e-02 to 9.9242248966313673e-02 seconds.
Warning: Simulation tolerance relaxed to achieve convergence from 9.9242248966313770e-02 to 9.9242248966313867e-02 seconds.
Warning: Simulation tolerance relaxed to achieve convergence from 9.9242248966313867e-02 to 9.9242248966313965e-02 seconds.
Warning: Simulation tolerance relaxed to achieve convergence from 9.9242248966313965e-02 to 9.9242248966314062e-02 seconds.
Warning: Simulation tolerance relaxed to achieve convergence from 9.9242248966314062e-02 to 9.9242248966314159e-02 seconds.
Warning: Simulation tolerance relaxed to achieve convergence from 9.9242248966314547e-02 to 9.9242248966314645e-02 seconds.
Warning: Simulation tolerance relaxed to achieve convergence from 9.9242248966314839e-02 to 9.9242248966314936e-02 seconds.
Warning: Simulation tolerance relaxed to achieve convergence from 9.9242248966315130e-02 to 9.9242248966315227e-02 seconds.
Warning: Simulation tolerance relaxed to achieve convergence from 9.9242248966315227e-02 to 9.9242248966315325e-02 seconds.
Warning: Simulation tolerance relaxed to achieve convergence from 9.9242248966315325e-02 to 9.9242248966315422e-02 seconds.
Warning: Simulation tolerance relaxed to achieve convergence from 9.9242248966315422e-02 to 9.9242248966315519e-02 seconds.
Warning: Simulation tolerance relaxed to achieve convergence from 9.9242248966317503e-02 to 9.9242248966317601e-02 seconds.
Warning: Simulation tolerance relaxed to achieve convergence from 9.9242248966324900e-02 to 9.9242248966324997e-02 seconds.
Warning: Simulation tolerance relaxed to achieve convergence from 9.9242248966335003e-02 to 9.9242248966335100e-02 seconds.
Warning: Simulation tolerance relaxed to achieve convergence from 9.9242248966335794e-02 to 9.9242248966335891e-02 seconds.
Warning: Simulation tolerance relaxed to achieve convergence from 9.9242248966337071e-02 to 9.9242248966337168e-02 seconds.
Warning: Simulation tolerance relaxed to achieve convergence from 9.9242248966338251e-02 to 9.9242248966338348e-02 seconds.
Warning: Simulation tolerance relaxed to achieve convergence from 9.9242248966338348e-02 to 9.9242248966338445e-02 seconds.
Warning: Simulation tolerance relaxed to achieve convergence from 9.9242248966338736e-02 to 9.9242248966338834e-02 seconds.
Warning: Simulation tolerance relaxed to achieve convergence from 9.9242248966338834e-02 to 9.9242248966338931e-02 seconds.
Warning: Simulation tolerance relaxed to achieve convergence from 9.9242248966340332e-02 to 9.9242248966340429e-02 seconds.
Warning: Simulation tolerance relaxed to achieve convergence from 9.9242248966340429e-02 to 9.9242248966340527e-02 seconds.
Warning: Simulation tolerance relaxed to achieve convergence from 9.9242248966353128e-02 to 9.9242248966353225e-02 seconds.
Warning: Simulation tolerance relaxed to achieve convergence from 9.9242248966361121e-02 to 9.9242248966361218e-02 seconds.
Warning: Simulation tolerance relaxed to achieve convergence from 9.9242248966361996e-02 to 9.9242248966362093e-02 seconds.
Warning: Simulation tolerance relaxed to achieve convergence from 9.9242248966364174e-02 to 9.9242248966364272e-02 seconds.
Warning: Simulation tolerance relaxed to achieve convergence from 9.9242248966364466e-02 to 9.9242248966364563e-02 seconds.
Warning: Simulation tolerance relaxed to achieve convergence from 9.9242248966367658e-02 to 9.9242248966367755e-02 seconds.
Warning: Simulation tolerance relaxed to achieve convergence from 9.9242248966368546e-02 to 9.9242248966368643e-02 seconds.
Warning: Simulation tolerance relaxed to achieve convergence from 9.9242248966370336e-02 to 9.9242248966370433e-02 seconds.
Warning: Simulation tolerance relaxed to achieve convergence from 9.9314938758614468e-02 to 9.9314938758614565e-02 seconds.
Warning: Simulation tolerance relaxed to achieve convergence from 9.9314938758614663e-02 to 9.9314938758614760e-02 seconds.
Warning: Simulation tolerance relaxed to achieve convergence from 9.9314938758614857e-02 to 9.9314938758614954e-02 seconds.
Warning: Simulation tolerance relaxed to achieve convergence from 9.9314938758616356e-02 to 9.9314938758616453e-02 seconds.
Warning: Simulation tolerance relaxed to achieve convergence from 9.9314938758616744e-02 to 9.9314938758616841e-02 seconds.
Warning: Simulation tolerance relaxed to achieve convergence from 9.9314938758617133e-02 to 9.9314938758617230e-02 seconds.
Warning: Simulation tolerance relaxed to achieve convergence from 9.9314938758617230e-02 to 9.9314938758617327e-02 seconds.
Warning: Simulation tolerance relaxed to achieve convergence from 9.9314938758617521e-02 to 9.9314938758617619e-02 seconds.
Warning: Simulation tolerance relaxed to achieve convergence from 9.9314938758617813e-02 to 9.9314938758617910e-02 seconds.
Warning: Simulation tolerance relaxed to achieve convergence from 9.9314938758618104e-02 to 9.9314938758618201e-02 seconds.
Warning: Simulation tolerance relaxed to achieve convergence from 9.9314938758618493e-02 to 9.9314938758618590e-02 seconds.
Warning: Simulation tolerance relaxed to achieve convergence from 9.9314938758618881e-02 to 9.9314938758618979e-02 seconds.
Warning: Simulation tolerance relaxed to achieve convergence from 9.9314938758619464e-02 to 9.9314938758619561e-02 seconds.
Warning: Simulation tolerance relaxed to achieve convergence from 9.9314938758620450e-02 to 9.9314938758620547e-02 seconds.
Warning: Simulation tolerance relaxed to achieve convergence from 9.9314938758620644e-02 to 9.9314938758620741e-02 seconds.
Warning: Simulation tolerance relaxed to achieve convergence from 9.9314938758621421e-02 to 9.9314938758621518e-02 seconds.
Warning: Simulation tolerance relaxed to achieve convergence from 9.9314938758621810e-02 to 9.9314938758621907e-02 seconds.
Warning: Simulation tolerance relaxed to achieve convergence from 9.9314938758622004e-02 to 9.9314938758622101e-02 seconds.
Warning: Simulation tolerance relaxed to achieve convergence from 9.9314938758622490e-02 to 9.9314938758622587e-02 seconds.
Warning: Simulation tolerance relaxed to achieve convergence from 9.9395561746931038e-02 to 9.9395561746931135e-02 seconds.
Warning: Simulation tolerance relaxed to achieve convergence from 9.9395561746976557e-02 to 9.9395561746976654e-02 seconds.
Warning: Simulation tolerance relaxed to achieve convergence from 9.9395561746977251e-02 to 9.9395561746977348e-02 seconds.
Warning: Simulation tolerance relaxed to achieve convergence from 9.9395561746977446e-02 to 9.9395561746977543e-02 seconds.
Warning: Simulation tolerance relaxed to achieve convergence from 9.9460152927569698e-02 to 9.9460152927569795e-02 seconds.
Warning: Simulation tolerance relaxed to achieve convergence from 9.9460152927569795e-02 to 9.9460152927569892e-02 seconds.
Warning: Simulation tolerance relaxed to achieve convergence from 9.9484342275663606e-02 to 9.9484342275663704e-02 seconds.
Warning: Simulation tolerance relaxed to achieve convergence from 9.9484342275663704e-02 to 9.9484342275663801e-02 seconds.
Warning: Simulation tolerance relaxed to achieve convergence from 9.9484342275664592e-02 to 9.9484342275664689e-02 seconds.
Warning: Simulation tolerance relaxed to achieve convergence from 9.9484342275664689e-02 to 9.9484342275664786e-02 seconds.
Warning: Simulation tolerance relaxed to achieve convergence from 9.9484342275666382e-02 to 9.9484342275666479e-02 seconds.
Warning: Simulation tolerance relaxed to achieve convergence from 9.9484342275666479e-02 to 9.9484342275666576e-02 seconds.
Warning: Simulation tolerance relaxed to achieve convergence from 9.9484342275945492e-02 to 9.9484342275945589e-02 seconds.
Warning: Simulation tolerance relaxed to achieve convergence from 9.9484342275945881e-02 to 9.9484342275945978e-02 seconds.
Warning: Simulation tolerance relaxed to achieve convergence from 9.9484342275946464e-02 to 9.9484342275946561e-02 seconds.
Warning: Simulation tolerance relaxed to achieve convergence from 9.9484342275946658e-02 to 9.9484342275946755e-02 seconds.
Warning: Simulation tolerance relaxed to achieve convergence from 9.9484342275946852e-02 to 9.9484342275946949e-02 seconds.
Warning: Simulation tolerance relaxed to achieve convergence from 9.9484342275950238e-02 to 9.9484342275950335e-02 seconds.
Warning: Simulation tolerance relaxed to achieve convergence from 9.9484342275950335e-02 to 9.9484342275950433e-02 seconds.
Warning: Simulation tolerance relaxed to achieve convergence from 9.9500507548394748e-02 to 9.9500507548394845e-02 seconds.
Warning: Simulation tolerance relaxed to achieve convergence from 9.9500507548395040e-02 to 9.9500507548395137e-02 seconds.
Warning: Simulation tolerance relaxed to achieve convergence from 9.9516063442814245e-02 to 9.9516063442814343e-02 seconds.
Warning: Simulation tolerance relaxed to achieve convergence from 9.9516063442853242e-02 to 9.9516063442853339e-02 seconds.
Warning: Simulation tolerance relaxed to achieve convergence from 9.9608228259628950e-02 to 9.9608228259629047e-02 seconds.
Warning: Simulation tolerance relaxed to achieve convergence from 9.9654257816986155e-02 to 9.9654257816986253e-02 seconds.
Warning: Simulation tolerance relaxed to achieve convergence from 9.9654257816987238e-02 to 9.9654257816987335e-02 seconds.
Warning: Simulation tolerance relaxed to achieve convergence from 9.9654257816987335e-02 to 9.9654257816987432e-02 seconds.
Warning: Simulation tolerance relaxed to achieve convergence from 9.9654257816990693e-02 to 9.9654257816990791e-02 seconds.
Warning: Simulation tolerance relaxed to achieve convergence from 9.9654257816991276e-02 to 9.9654257816991373e-02 seconds.
Warning: Simulation tolerance relaxed to achieve convergence from 9.9654257816992775e-02 to 9.9654257816992872e-02 seconds.
Warning: Simulation tolerance relaxed to achieve convergence from 9.9654257816993067e-02 to 9.9654257816993164e-02 seconds.
Warning: Simulation tolerance relaxed to achieve convergence from 9.9654257816995620e-02 to 9.9654257816995717e-02 seconds.
Warning: Simulation tolerance relaxed to achieve convergence from 9.9654257816995717e-02 to 9.9654257816995814e-02 seconds.
Warning: Simulation tolerance relaxed to achieve convergence from 9.9654257816998201e-02 to 9.9654257816998298e-02 seconds.
Warning: Simulation tolerance relaxed to achieve convergence from 9.9751161465042953e-02 to 9.9751161465043051e-02 seconds.
Warning: Simulation tolerance relaxed to achieve convergence from 9.9751161465043842e-02 to 9.9751161465043939e-02 seconds.
Warning: Simulation tolerance relaxed to achieve convergence from 9.9751161465045923e-02 to 9.9751161465046020e-02 seconds.
Warning: Simulation tolerance relaxed to achieve convergence from 9.9751161465046215e-02 to 9.9751161465046312e-02 seconds.
Warning: Simulation tolerance relaxed to achieve convergence from 9.9751161465046798e-02 to 9.9751161465046895e-02 seconds.
Warning: Simulation tolerance relaxed to achieve convergence from 9.9751161465048394e-02 to 9.9751161465048491e-02 seconds.
Warning: Simulation tolerance relaxed to achieve convergence from 9.9751161465049767e-02 to 9.9751161465049865e-02 seconds.
Warning: Simulation tolerance relaxed to achieve convergence from 9.9751161465052543e-02 to 9.9751161465052640e-02 seconds.
Warning: Simulation tolerance relaxed to achieve convergence from 9.9751161470039734e-02 to 9.9751161470039831e-02 seconds.
Warning: Simulation tolerance relaxed to achieve convergence from 9.9751161470040317e-02 to 9.9751161470040414e-02 seconds.
Warning: Simulation tolerance relaxed to achieve convergence from 9.9751161470041011e-02 to 9.9751161470041108e-02 seconds.
Warning: Simulation tolerance relaxed to achieve convergence from 9.9933217717290343e-02 to 9.9933217717290440e-02 seconds.
Warning: Simulation tolerance relaxed to achieve convergence from 9.9993449241818411e-02 to 9.9993449241818508e-02 seconds.
Warning: Simulation tolerance relaxed to achieve convergence from 9.9993449241818508e-02 to 9.9993449241818605e-02 seconds.
Warning: Simulation tolerance relaxed to achieve convergence from 9.9993449241818605e-02 to 9.9993449241818702e-02 seconds.
Warning: Simulation tolerance relaxed to achieve convergence from 9.9993449242447921e-02 to 9.9993449242448018e-02 seconds.
Total elapsed time: 1572.538 seconds.

Files loaded:
C:\Users\Gonzalo\Documents\GitHub\Circuitos II\1CTDC\CP5_buck_pwm\Buck y PWM\intento6_error.net
C:\Users\Gonzalo\AppData\Local\LTspice\lib\cmp\standard.dio
C:\Users\Gonzalo\AppData\Local\LTspice\lib\cmp\standard.mos
C:\Users\Gonzalo\Documents\GitHub\Circuitos II\1CTDC\CP5_buck_pwm\Buck y PWM\LM393.5_1
C:\Users\Gonzalo\Documents\GitHub\Circuitos II\1CTDC\CP5_buck_pwm\Buck y PWM\LM324.mod
C:\Users\Gonzalo\AppData\Local\LTspice\lib\sub\ADI.lib
C:\Users\Gonzalo\Documents\GitHub\Circuitos II\1CTDC\CP5_buck_pwm\Buck y PWM\IR2104.lib
C:\Users\Gonzalo\Documents\GitHub\Circuitos II\1CTDC\CP5_buck_pwm\Buck y PWM\TL431.mod

