LTspice 24.1.7 for Windows
Circuit: C:\Users\Gonzalo\Documents\GitHub\Circuitos II\1CTDC\CP5_buck_pwm\Buck y PWM\intento6_error.net
Start Time: Sun Jul  6 14:24:16 2025
Options: gmin=1e-11  abstol=1e-10  reltol=0.006  cshunt=1e-15
solver = Normal
Maximum thread count: 12
tnom = 27
temp = 27
method = modified trap
gmin = 1e-11
abstol = 1e-10
reltol = 0.006
Instance "u1:x_gd_template:x_ho_stage:M_HO_PMOS": Length shorter than recommended for a level 1 MOSFET.
Instance "u1:x_gd_template:x_ho_stage:M_HO_NMOS": Length shorter than recommended for a level 1 MOSFET.
Instance "u1:x_gd_template:x_lo_stage:M_LO_PMOS": Length shorter than recommended for a level 1 MOSFET.
Instance "u1:x_gd_template:x_lo_stage:M_LO_NMOS": Length shorter than recommended for a level 1 MOSFET.
Direct Newton iteration for .op point succeeded.
Warning: Simulation tolerance relaxed to achieve convergence from 2.9109846696788060e-03 to 2.9109846696788160e-03 seconds.
Warning: Simulation tolerance relaxed to achieve convergence from 2.9109846696788360e-03 to 2.9109846696788459e-03 seconds.
Warning: Simulation tolerance relaxed to achieve convergence from 2.9109846696788659e-03 to 2.9109846696788759e-03 seconds.
Warning: Simulation tolerance relaxed to achieve convergence from 2.9109846696789357e-03 to 2.9109846696789457e-03 seconds.
Warning: Simulation tolerance relaxed to achieve convergence from 2.9109846696791053e-03 to 2.9109846696791153e-03 seconds.
Warning: Simulation tolerance relaxed to achieve convergence from 2.9109846696791352e-03 to 2.9109846696791452e-03 seconds.
Warning: Simulation tolerance relaxed to achieve convergence from 2.9109846696793247e-03 to 2.9109846696793347e-03 seconds.
Warning: Simulation tolerance relaxed to achieve convergence from 2.9109846696793347e-03 to 2.9109846696793447e-03 seconds.
Warning: Simulation tolerance relaxed to achieve convergence from 2.9109846696795043e-03 to 2.9109846696795142e-03 seconds.
Warning: Simulation tolerance relaxed to achieve convergence from 2.9109846696795841e-03 to 2.9109846696795940e-03 seconds.
Warning: Simulation tolerance relaxed to achieve convergence from 2.9109846696800733e-03 to 2.9109846696800832e-03 seconds.
Warning: Simulation tolerance relaxed to achieve convergence from 2.9109846696801132e-03 to 2.9109846696801231e-03 seconds.
Warning: Simulation tolerance relaxed to achieve convergence from 2.9109846696801431e-03 to 2.9109846696801531e-03 seconds.
Warning: Simulation tolerance relaxed to achieve convergence from 2.9109846696801531e-03 to 2.9109846696801630e-03 seconds.
Warning: Simulation tolerance relaxed to achieve convergence from 2.9109846696801730e-03 to 2.9109846696801830e-03 seconds.

Simulation stopped by user.
Total elapsed time: 30.352 seconds.

Files loaded:
C:\Users\Gonzalo\Documents\GitHub\Circuitos II\1CTDC\CP5_buck_pwm\Buck y PWM\intento6_error.net
C:\Users\Gonzalo\AppData\Local\LTspice\lib\cmp\standard.dio
C:\Users\Gonzalo\AppData\Local\LTspice\lib\cmp\standard.mos
C:\Users\Gonzalo\Documents\GitHub\Circuitos II\1CTDC\CP5_buck_pwm\Buck y PWM\LM393.5_1
C:\Users\Gonzalo\Documents\GitHub\Circuitos II\1CTDC\CP5_buck_pwm\Buck y PWM\LM324.mod
C:\Users\Gonzalo\AppData\Local\LTspice\lib\sub\ADI.lib
C:\Users\Gonzalo\Documents\GitHub\Circuitos II\1CTDC\CP5_buck_pwm\Buck y PWM\IR2104.lib
C:\Users\Gonzalo\Documents\GitHub\Circuitos II\1CTDC\CP5_buck_pwm\Buck y PWM\TL431.mod

