LTspice 24.1.7 for Windows
Circuit: C:\Users\Gonzalo\Documents\GitHub\Circuitos II\1CTDC\CP5_buck_pwm\Buck y PWM\intento6_error.net
Start Time: Sun Jun 29 23:12:43 2025
Options: gmin=1e-11  abstol=1e-10  reltol=0.009  cshunt=1e-15
solver = Normal
Maximum thread count: 12
tnom = 27
temp = 27
method = modified trap
gmin = 1e-11
abstol = 1e-10
reltol = 0.009
Instance "u1:x_gd_template:x_ho_stage:M_HO_PMOS": Length shorter than recommended for a level 1 MOSFET.
Instance "u1:x_gd_template:x_ho_stage:M_HO_NMOS": Length shorter than recommended for a level 1 MOSFET.
Instance "u1:x_gd_template:x_lo_stage:M_LO_PMOS": Length shorter than recommended for a level 1 MOSFET.
Instance "u1:x_gd_template:x_lo_stage:M_LO_NMOS": Length shorter than recommended for a level 1 MOSFET.
Direct Newton iteration for .op point succeeded.
Warning: Simulation tolerance relaxed to achieve convergence from 2.2096892428397148e-04 to 2.2096892428397248e-04 seconds.
Warning: Simulation tolerance relaxed to achieve convergence from 3.2577245779187803e-04 to 3.2577245779187900e-04 seconds.
Warning: Simulation tolerance relaxed to achieve convergence from 4.1221485257728801e-04 to 4.1221485257728898e-04 seconds.
Warning: Simulation tolerance relaxed to achieve convergence from 4.1221485257731701e-04 to 4.1221485257731798e-04 seconds.
Warning: Simulation tolerance relaxed to achieve convergence from 4.1221485257732400e-04 to 4.1221485257732498e-04 seconds.
Warning: Simulation tolerance relaxed to achieve convergence from 4.1221485257732498e-04 to 4.1221485257732595e-04 seconds.
Warning: Simulation tolerance relaxed to achieve convergence from 4.1221485257733197e-04 to 4.1221485257733295e-04 seconds.
Warning: Simulation tolerance relaxed to achieve convergence from 4.1221485257734997e-04 to 4.1221485257735094e-04 seconds.
Warning: Simulation tolerance relaxed to achieve convergence from 4.1221485257735094e-04 to 4.1221485257735192e-04 seconds.
Warning: Simulation tolerance relaxed to achieve convergence from 4.1221485257735289e-04 to 4.1221485257735387e-04 seconds.
Warning: Simulation tolerance relaxed to achieve convergence from 4.1221485257735485e-04 to 4.1221485257735582e-04 seconds.
Warning: Simulation tolerance relaxed to achieve convergence from 4.1221485257735582e-04 to 4.1221485257735680e-04 seconds.
Warning: Simulation tolerance relaxed to achieve convergence from 4.1221485257735680e-04 to 4.1221485257735777e-04 seconds.
Warning: Simulation tolerance relaxed to achieve convergence from 4.1221485257735777e-04 to 4.1221485257735875e-04 seconds.
Warning: Simulation tolerance relaxed to achieve convergence from 4.1221485257735973e-04 to 4.1221485257736070e-04 seconds.
Warning: Simulation tolerance relaxed to achieve convergence from 4.1221485257736769e-04 to 4.1221485257736867e-04 seconds.
Warning: Simulation tolerance relaxed to achieve convergence from 4.1221485257738873e-04 to 4.1221485257738970e-04 seconds.
Warning: Simulation tolerance relaxed to achieve convergence from 4.1221485257739165e-04 to 4.1221485257739263e-04 seconds.
Warning: Simulation tolerance relaxed to achieve convergence from 4.1221485257739263e-04 to 4.1221485257739361e-04 seconds.
Warning: Simulation tolerance relaxed to achieve convergence from 4.1221485257739361e-04 to 4.1221485257739458e-04 seconds.
Warning: Simulation tolerance relaxed to achieve convergence from 4.1221485257739458e-04 to 4.1221485257739556e-04 seconds.
Warning: Simulation tolerance relaxed to achieve convergence from 4.1221485257739653e-04 to 4.1221485257739751e-04 seconds.
Warning: Simulation tolerance relaxed to achieve convergence from 4.1221485257739952e-04 to 4.1221485257740049e-04 seconds.
Warning: Simulation tolerance relaxed to achieve convergence from 4.1221485257740049e-04 to 4.1221485257740147e-04 seconds.
Warning: Simulation tolerance relaxed to achieve convergence from 4.1221485257740147e-04 to 4.1221485257740244e-04 seconds.
Warning: Simulation tolerance relaxed to achieve convergence from 4.1221485257740938e-04 to 4.1221485257741036e-04 seconds.
Warning: Simulation tolerance relaxed to achieve convergence from 4.1221485257741133e-04 to 4.1221485257741231e-04 seconds.
Warning: Simulation tolerance relaxed to achieve convergence from 4.1221485257741231e-04 to 4.1221485257741328e-04 seconds.
Warning: Simulation tolerance relaxed to achieve convergence from 4.1221485257741328e-04 to 4.1221485257741426e-04 seconds.
Warning: Simulation tolerance relaxed to achieve convergence from 4.1221485257741426e-04 to 4.1221485257741524e-04 seconds.
Warning: Simulation tolerance relaxed to achieve convergence from 4.1221485257741524e-04 to 4.1221485257741621e-04 seconds.
Warning: Simulation tolerance relaxed to achieve convergence from 4.1221485257741621e-04 to 4.1221485257741719e-04 seconds.
Warning: Simulation tolerance relaxed to achieve convergence from 4.1221485257741719e-04 to 4.1221485257741816e-04 seconds.
Warning: Simulation tolerance relaxed to achieve convergence from 4.1221485257741816e-04 to 4.1221485257741914e-04 seconds.
Warning: Simulation tolerance relaxed to achieve convergence from 4.1221485257742613e-04 to 4.1221485257742711e-04 seconds.
Warning: Simulation tolerance relaxed to achieve convergence from 4.1221485257744814e-04 to 4.1221485257744912e-04 seconds.
Warning: Simulation tolerance relaxed to achieve convergence from 4.1221485257744912e-04 to 4.1221485257745009e-04 seconds.
Warning: Simulation tolerance relaxed to achieve convergence from 4.1221485257745503e-04 to 4.1221485257745600e-04 seconds.
Warning: Simulation tolerance relaxed to achieve convergence from 4.1221485257745600e-04 to 4.1221485257745698e-04 seconds.
Warning: Simulation tolerance relaxed to achieve convergence from 4.1221485257745996e-04 to 4.1221485257746094e-04 seconds.
Warning: Simulation tolerance relaxed to achieve convergence from 4.1221485257746191e-04 to 4.1221485257746289e-04 seconds.
Warning: Simulation tolerance relaxed to achieve convergence from 4.1221485257746289e-04 to 4.1221485257746386e-04 seconds.
Warning: Simulation tolerance relaxed to achieve convergence from 4.1221485257746386e-04 to 4.1221485257746484e-04 seconds.
Warning: Simulation tolerance relaxed to achieve convergence from 4.1221485257746679e-04 to 4.1221485257746777e-04 seconds.
Warning: Simulation tolerance relaxed to achieve convergence from 4.1221485257747378e-04 to 4.1221485257747476e-04 seconds.
Warning: Simulation tolerance relaxed to achieve convergence from 4.1221485257747476e-04 to 4.1221485257747573e-04 seconds.
Warning: Simulation tolerance relaxed to achieve convergence from 4.1221485257748175e-04 to 4.1221485257748273e-04 seconds.
Warning: Simulation tolerance relaxed to achieve convergence from 4.1221485257748273e-04 to 4.1221485257748370e-04 seconds.
Warning: Simulation tolerance relaxed to achieve convergence from 4.1221485257750376e-04 to 4.1221485257750474e-04 seconds.
Warning: Simulation tolerance relaxed to achieve convergence from 4.1221485257751075e-04 to 4.1221485257751173e-04 seconds.
Warning: Simulation tolerance relaxed to achieve convergence from 4.1221485257751374e-04 to 4.1221485257751471e-04 seconds.
Warning: Simulation tolerance relaxed to achieve convergence from 4.1221485257752268e-04 to 4.1221485257752366e-04 seconds.
Warning: Simulation tolerance relaxed to achieve convergence from 4.1221485257752463e-04 to 4.1221485257752561e-04 seconds.
Warning: Simulation tolerance relaxed to achieve convergence from 4.1221485257752859e-04 to 4.1221485257752957e-04 seconds.
Warning: Simulation tolerance relaxed to achieve convergence from 4.1221485257752957e-04 to 4.1221485257753054e-04 seconds.
Warning: Simulation tolerance relaxed to achieve convergence from 4.1221485257753054e-04 to 4.1221485257753152e-04 seconds.
Warning: Simulation tolerance relaxed to achieve convergence from 4.1221485257753152e-04 to 4.1221485257753249e-04 seconds.
Warning: Simulation tolerance relaxed to achieve convergence from 4.1221485257753347e-04 to 4.1221485257753444e-04 seconds.
Warning: Simulation tolerance relaxed to achieve convergence from 4.1221485257753444e-04 to 4.1221485257753542e-04 seconds.
Warning: Simulation tolerance relaxed to achieve convergence from 4.1221485257753737e-04 to 4.1221485257753835e-04 seconds.
Warning: Simulation tolerance relaxed to achieve convergence from 4.1221485257754328e-04 to 4.1221485257754426e-04 seconds.
Warning: Simulation tolerance relaxed to achieve convergence from 4.1221485257754426e-04 to 4.1221485257754523e-04 seconds.
Warning: Simulation tolerance relaxed to achieve convergence from 4.1221485257754523e-04 to 4.1221485257754621e-04 seconds.
Warning: Simulation tolerance relaxed to achieve convergence from 4.1221485257754621e-04 to 4.1221485257754718e-04 seconds.
Warning: Simulation tolerance relaxed to achieve convergence from 4.1221485257754718e-04 to 4.1221485257754816e-04 seconds.
Warning: Simulation tolerance relaxed to achieve convergence from 4.1221485257754816e-04 to 4.1221485257754914e-04 seconds.
Warning: Simulation tolerance relaxed to achieve convergence from 4.1221485257755109e-04 to 4.1221485257755206e-04 seconds.
Warning: Simulation tolerance relaxed to achieve convergence from 4.1221485257755206e-04 to 4.1221485257755304e-04 seconds.
Warning: Simulation tolerance relaxed to achieve convergence from 4.1221485257755304e-04 to 4.1221485257755401e-04 seconds.
Warning: Simulation tolerance relaxed to achieve convergence from 4.1221485257755597e-04 to 4.1221485257755694e-04 seconds.
Warning: Simulation tolerance relaxed to achieve convergence from 4.1221485257755694e-04 to 4.1221485257755792e-04 seconds.
Warning: Simulation tolerance relaxed to achieve convergence from 4.1221485257755792e-04 to 4.1221485257755889e-04 seconds.
Warning: Simulation tolerance relaxed to achieve convergence from 4.1221485257755889e-04 to 4.1221485257755987e-04 seconds.
Warning: Simulation tolerance relaxed to achieve convergence from 4.1221485257755987e-04 to 4.1221485257756084e-04 seconds.
Warning: Simulation tolerance relaxed to achieve convergence from 4.1221485257756084e-04 to 4.1221485257756182e-04 seconds.
Warning: Simulation tolerance relaxed to achieve convergence from 4.1221485257756280e-04 to 4.1221485257756377e-04 seconds.
Warning: Simulation tolerance relaxed to achieve convergence from 4.1221485257756377e-04 to 4.1221485257756475e-04 seconds.
Warning: Simulation tolerance relaxed to achieve convergence from 4.1221485257757375e-04 to 4.1221485257757472e-04 seconds.
Warning: Simulation tolerance relaxed to achieve convergence from 4.1221485257757765e-04 to 4.1221485257757863e-04 seconds.
Warning: Simulation tolerance relaxed to achieve convergence from 4.1221485257758161e-04 to 4.1221485257758258e-04 seconds.
Warning: Simulation tolerance relaxed to achieve convergence from 4.1221485257758258e-04 to 4.1221485257758356e-04 seconds.
Warning: Simulation tolerance relaxed to achieve convergence from 4.1221485257758356e-04 to 4.1221485257758453e-04 seconds.
Warning: Simulation tolerance relaxed to achieve convergence from 4.1221485257758453e-04 to 4.1221485257758551e-04 seconds.
Warning: Simulation tolerance relaxed to achieve convergence from 4.1221485257759039e-04 to 4.1221485257759137e-04 seconds.
Warning: Simulation tolerance relaxed to achieve convergence from 4.1221485257759137e-04 to 4.1221485257759234e-04 seconds.
Warning: Simulation tolerance relaxed to achieve convergence from 4.1221485257759234e-04 to 4.1221485257759332e-04 seconds.
Warning: Simulation tolerance relaxed to achieve convergence from 4.1221485257759727e-04 to 4.1221485257759825e-04 seconds.
Warning: Simulation tolerance relaxed to achieve convergence from 4.1221485257761126e-04 to 4.1221485257761224e-04 seconds.
Warning: Simulation tolerance relaxed to achieve convergence from 4.1221485257761424e-04 to 4.1221485257761522e-04 seconds.
Warning: Simulation tolerance relaxed to achieve convergence from 4.1221485257761722e-04 to 4.1221485257761820e-04 seconds.
Warning: Simulation tolerance relaxed to achieve convergence from 4.1221485257761820e-04 to 4.1221485257761917e-04 seconds.
Warning: Simulation tolerance relaxed to achieve convergence from 4.1221485257761917e-04 to 4.1221485257762015e-04 seconds.
Warning: Simulation tolerance relaxed to achieve convergence from 4.1221485257762015e-04 to 4.1221485257762113e-04 seconds.
Warning: Simulation tolerance relaxed to achieve convergence from 4.1221485257762113e-04 to 4.1221485257762210e-04 seconds.
Warning: Simulation tolerance relaxed to achieve convergence from 4.1221485257762210e-04 to 4.1221485257762308e-04 seconds.
Warning: Simulation tolerance relaxed to achieve convergence from 4.1221485257763105e-04 to 4.1221485257763202e-04 seconds.
Warning: Simulation tolerance relaxed to achieve convergence from 4.1221485257766607e-04 to 4.1221485257766704e-04 seconds.
Warning: Simulation tolerance relaxed to achieve convergence from 4.1221485257767306e-04 to 4.1221485257767404e-04 seconds.
Warning: Simulation tolerance relaxed to achieve convergence from 4.1221485257767702e-04 to 4.1221485257767799e-04 seconds.
Warning: Simulation tolerance relaxed to achieve convergence from 4.1221485257767799e-04 to 4.1221485257767897e-04 seconds.
Warning: Simulation tolerance relaxed to achieve convergence from 4.1221485257767994e-04 to 4.1221485257768092e-04 seconds.
Warning: Simulation tolerance relaxed to achieve convergence from 4.1221485257768092e-04 to 4.1221485257768190e-04 seconds.
Warning: Simulation tolerance relaxed to achieve convergence from 4.1221485257768482e-04 to 4.1221485257768580e-04 seconds.
Warning: Simulation tolerance relaxed to achieve convergence from 4.1221485257768580e-04 to 4.1221485257768677e-04 seconds.
Warning: Simulation tolerance relaxed to achieve convergence from 4.1221485257768873e-04 to 4.1221485257768970e-04 seconds.
Warning: Simulation tolerance relaxed to achieve convergence from 4.1221485257768970e-04 to 4.1221485257769068e-04 seconds.
Warning: Simulation tolerance relaxed to achieve convergence from 4.1221485257769068e-04 to 4.1221485257769165e-04 seconds.
Warning: Simulation tolerance relaxed to achieve convergence from 4.1221485257769165e-04 to 4.1221485257769263e-04 seconds.
Warning: Simulation tolerance relaxed to achieve convergence from 4.1221485257769263e-04 to 4.1221485257769361e-04 seconds.
Warning: Simulation tolerance relaxed to achieve convergence from 4.1221485257769361e-04 to 4.1221485257769458e-04 seconds.
Warning: Simulation tolerance relaxed to achieve convergence from 4.1221485257769458e-04 to 4.1221485257769556e-04 seconds.
Warning: Simulation tolerance relaxed to achieve convergence from 4.1221485257769556e-04 to 4.1221485257769653e-04 seconds.
Warning: Simulation tolerance relaxed to achieve convergence from 4.1221485257769653e-04 to 4.1221485257769751e-04 seconds.
Warning: Simulation tolerance relaxed to achieve convergence from 4.1221485257769848e-04 to 4.1221485257769946e-04 seconds.
Warning: Simulation tolerance relaxed to achieve convergence from 4.1221485257770645e-04 to 4.1221485257770743e-04 seconds.
Warning: Simulation tolerance relaxed to achieve convergence from 4.1221485257770743e-04 to 4.1221485257770840e-04 seconds.
Warning: Simulation tolerance relaxed to achieve convergence from 4.1221485257770840e-04 to 4.1221485257770938e-04 seconds.
Warning: Simulation tolerance relaxed to achieve convergence from 4.1221485257771139e-04 to 4.1221485257771236e-04 seconds.
Warning: Simulation tolerance relaxed to achieve convergence from 4.1221485257771236e-04 to 4.1221485257771334e-04 seconds.
Warning: Simulation tolerance relaxed to achieve convergence from 4.1221485257771431e-04 to 4.1221485257771529e-04 seconds.
Warning: Simulation tolerance relaxed to achieve convergence from 4.1221485257771627e-04 to 4.1221485257771724e-04 seconds.
Warning: Simulation tolerance relaxed to achieve convergence from 4.1221485257772516e-04 to 4.1221485257772613e-04 seconds.
Warning: Simulation tolerance relaxed to achieve convergence from 4.1221485257772613e-04 to 4.1221485257772711e-04 seconds.
Warning: Simulation tolerance relaxed to achieve convergence from 4.1221485257773009e-04 to 4.1221485257773106e-04 seconds.
Warning: Simulation tolerance relaxed to achieve convergence from 4.1221485257773106e-04 to 4.1221485257773204e-04 seconds.
Warning: Simulation tolerance relaxed to achieve convergence from 4.1221485257773204e-04 to 4.1221485257773302e-04 seconds.
Warning: Simulation tolerance relaxed to achieve convergence from 4.1221485257773302e-04 to 4.1221485257773399e-04 seconds.
Warning: Simulation tolerance relaxed to achieve convergence from 4.1221485257774001e-04 to 4.1221485257774098e-04 seconds.
Warning: Simulation tolerance relaxed to achieve convergence from 4.1221485257774299e-04 to 4.1221485257774397e-04 seconds.
Warning: Simulation tolerance relaxed to achieve convergence from 4.1221485257774397e-04 to 4.1221485257774494e-04 seconds.
Warning: Simulation tolerance relaxed to achieve convergence from 4.1221485257775194e-04 to 4.1221485257775291e-04 seconds.
Warning: Simulation tolerance relaxed to achieve convergence from 4.1221485257775584e-04 to 4.1221485257775681e-04 seconds.
Warning: Simulation tolerance relaxed to achieve convergence from 4.1221485257775882e-04 to 4.1221485257775980e-04 seconds.
Warning: Simulation tolerance relaxed to achieve convergence from 4.1221485257776375e-04 to 4.1221485257776473e-04 seconds.
Warning: Simulation tolerance relaxed to achieve convergence from 4.1221485257776473e-04 to 4.1221485257776570e-04 seconds.
Warning: Simulation tolerance relaxed to achieve convergence from 4.1221485257776570e-04 to 4.1221485257776668e-04 seconds.
Warning: Simulation tolerance relaxed to achieve convergence from 4.1221485257776869e-04 to 4.1221485257776966e-04 seconds.
Warning: Simulation tolerance relaxed to achieve convergence from 4.1221485257777460e-04 to 4.1221485257777557e-04 seconds.
Warning: Simulation tolerance relaxed to achieve convergence from 4.1221485257777557e-04 to 4.1221485257777655e-04 seconds.
Warning: Simulation tolerance relaxed to achieve convergence from 4.1221485257777655e-04 to 4.1221485257777752e-04 seconds.
Warning: Simulation tolerance relaxed to achieve convergence from 4.1221485257777850e-04 to 4.1221485257777947e-04 seconds.
Warning: Simulation tolerance relaxed to achieve convergence from 4.1221485257777947e-04 to 4.1221485257778045e-04 seconds.
Warning: Simulation tolerance relaxed to achieve convergence from 4.1221485257778836e-04 to 4.1221485257778934e-04 seconds.
Warning: Simulation tolerance relaxed to achieve convergence from 4.1221485257779324e-04 to 4.1221485257779422e-04 seconds.
Warning: Simulation tolerance relaxed to achieve convergence from 4.1221485257779422e-04 to 4.1221485257779520e-04 seconds.
Warning: Simulation tolerance relaxed to achieve convergence from 4.1221485257779520e-04 to 4.1221485257779617e-04 seconds.
Warning: Simulation tolerance relaxed to achieve convergence from 4.1221485257779818e-04 to 4.1221485257779915e-04 seconds.
Warning: Simulation tolerance relaxed to achieve convergence from 4.1221485257779915e-04 to 4.1221485257780013e-04 seconds.
Warning: Simulation tolerance relaxed to achieve convergence from 4.1221485257780013e-04 to 4.1221485257780110e-04 seconds.
Warning: Simulation tolerance relaxed to achieve convergence from 4.1221485257780208e-04 to 4.1221485257780306e-04 seconds.
Warning: Simulation tolerance relaxed to achieve convergence from 4.1221485257780403e-04 to 4.1221485257780501e-04 seconds.
Warning: Simulation tolerance relaxed to achieve convergence from 4.1221485257780501e-04 to 4.1221485257780598e-04 seconds.
Warning: Simulation tolerance relaxed to achieve convergence from 4.1221485257780598e-04 to 4.1221485257780696e-04 seconds.
Warning: Simulation tolerance relaxed to achieve convergence from 4.1221485257781883e-04 to 4.1221485257781981e-04 seconds.
Warning: Simulation tolerance relaxed to achieve convergence from 4.1221485257782176e-04 to 4.1221485257782273e-04 seconds.
Warning: Simulation tolerance relaxed to achieve convergence from 4.1221485257782973e-04 to 4.1221485257783070e-04 seconds.
Warning: Simulation tolerance relaxed to achieve convergence from 4.1221485257783070e-04 to 4.1221485257783168e-04 seconds.
Warning: Simulation tolerance relaxed to achieve convergence from 4.1221485257795772e-04 to 4.1221485257795869e-04 seconds.
Warning: Simulation tolerance relaxed to achieve convergence from 4.1221485257795869e-04 to 4.1221485257795967e-04 seconds.
Warning: Simulation tolerance relaxed to achieve convergence from 4.1221485257795967e-04 to 4.1221485257796064e-04 seconds.
Warning: Simulation tolerance relaxed to achieve convergence from 4.1221485257797051e-04 to 4.1221485257797149e-04 seconds.
Warning: Simulation tolerance relaxed to achieve convergence from 4.1221485257797149e-04 to 4.1221485257797246e-04 seconds.
Warning: Simulation tolerance relaxed to achieve convergence from 4.1221485257797946e-04 to 4.1221485257798043e-04 seconds.
Warning: Simulation tolerance relaxed to achieve convergence from 4.1221485257798141e-04 to 4.1221485257798238e-04 seconds.
Warning: Simulation tolerance relaxed to achieve convergence from 4.1221485257799626e-04 to 4.1221485257799724e-04 seconds.
Warning: Simulation tolerance relaxed to achieve convergence from 4.1221485257799924e-04 to 4.1221485257800022e-04 seconds.
Warning: Simulation tolerance relaxed to achieve convergence from 4.1221485257806522e-04 to 4.1221485257806619e-04 seconds.
Warning: Simulation tolerance relaxed to achieve convergence from 4.1221485257806717e-04 to 4.1221485257806814e-04 seconds.
Warning: Simulation tolerance relaxed to achieve convergence from 4.1221485257806814e-04 to 4.1221485257806912e-04 seconds.
Warning: Simulation tolerance relaxed to achieve convergence from 4.1221485257806912e-04 to 4.1221485257807009e-04 seconds.
Warning: Simulation tolerance relaxed to achieve convergence from 4.1221485257807009e-04 to 4.1221485257807107e-04 seconds.
Warning: Simulation tolerance relaxed to achieve convergence from 4.1221485257807107e-04 to 4.1221485257807205e-04 seconds.
Warning: Simulation tolerance relaxed to achieve convergence from 4.1221485257807595e-04 to 4.1221485257807692e-04 seconds.
Warning: Simulation tolerance relaxed to achieve convergence from 4.1221485257808278e-04 to 4.1221485257808376e-04 seconds.
Warning: Simulation tolerance relaxed to achieve convergence from 4.1221485257808473e-04 to 4.1221485257808571e-04 seconds.
Warning: Simulation tolerance relaxed to achieve convergence from 4.1221485257808869e-04 to 4.1221485257808966e-04 seconds.
Warning: Simulation tolerance relaxed to achieve convergence from 4.1221485257809362e-04 to 4.1221485257809460e-04 seconds.
Warning: Simulation tolerance relaxed to achieve convergence from 4.1221485257810061e-04 to 4.1221485257810159e-04 seconds.
Warning: Simulation tolerance relaxed to achieve convergence from 4.1221485257810652e-04 to 4.1221485257810750e-04 seconds.
Warning: Simulation tolerance relaxed to achieve convergence from 4.1221485257810951e-04 to 4.1221485257811048e-04 seconds.
Warning: Simulation tolerance relaxed to achieve convergence from 4.1221485257811048e-04 to 4.1221485257811146e-04 seconds.
Warning: Simulation tolerance relaxed to achieve convergence from 4.1221485257811444e-04 to 4.1221485257811541e-04 seconds.
Warning: Simulation tolerance relaxed to achieve convergence from 4.1221485257812230e-04 to 4.1221485257812327e-04 seconds.
Warning: Simulation tolerance relaxed to achieve convergence from 4.1221485257812523e-04 to 4.1221485257812620e-04 seconds.
Warning: Simulation tolerance relaxed to achieve convergence from 4.1221485257812620e-04 to 4.1221485257812718e-04 seconds.
Warning: Simulation tolerance relaxed to achieve convergence from 4.1221485257812718e-04 to 4.1221485257812815e-04 seconds.
Warning: Simulation tolerance relaxed to achieve convergence from 4.1221485257813108e-04 to 4.1221485257813206e-04 seconds.
Warning: Simulation tolerance relaxed to achieve convergence from 4.1221485257813699e-04 to 4.1221485257813797e-04 seconds.
Warning: Simulation tolerance relaxed to achieve convergence from 4.1221485257813894e-04 to 4.1221485257813992e-04 seconds.
Warning: Simulation tolerance relaxed to achieve convergence from 4.1221485257814089e-04 to 4.1221485257814187e-04 seconds.
Warning: Simulation tolerance relaxed to achieve convergence from 4.1221485257814187e-04 to 4.1221485257814284e-04 seconds.
Warning: Simulation tolerance relaxed to achieve convergence from 4.1221485257814881e-04 to 4.1221485257814978e-04 seconds.
Warning: Simulation tolerance relaxed to achieve convergence from 4.1221485257814978e-04 to 4.1221485257815076e-04 seconds.
Warning: Simulation tolerance relaxed to achieve convergence from 4.1221485257815173e-04 to 4.1221485257815271e-04 seconds.
Warning: Simulation tolerance relaxed to achieve convergence from 4.1221485257815472e-04 to 4.1221485257815569e-04 seconds.
Warning: Simulation tolerance relaxed to achieve convergence from 4.1221485257815569e-04 to 4.1221485257815667e-04 seconds.
Warning: Simulation tolerance relaxed to achieve convergence from 4.1221485257816160e-04 to 4.1221485257816258e-04 seconds.
Warning: Simulation tolerance relaxed to achieve convergence from 4.1221485257816258e-04 to 4.1221485257816355e-04 seconds.
Warning: Simulation tolerance relaxed to achieve convergence from 4.1221485257816453e-04 to 4.1221485257816550e-04 seconds.
Warning: Simulation tolerance relaxed to achieve convergence from 4.1221485257816550e-04 to 4.1221485257816648e-04 seconds.
Warning: Simulation tolerance relaxed to achieve convergence from 4.1221485257816648e-04 to 4.1221485257816746e-04 seconds.
Warning: Simulation tolerance relaxed to achieve convergence from 4.1221485257816746e-04 to 4.1221485257816843e-04 seconds.
Warning: Simulation tolerance relaxed to achieve convergence from 4.1221485257817732e-04 to 4.1221485257817830e-04 seconds.
Warning: Simulation tolerance relaxed to achieve convergence from 4.1221485257817830e-04 to 4.1221485257817927e-04 seconds.
Warning: Simulation tolerance relaxed to achieve convergence from 4.1221485257817927e-04 to 4.1221485257818025e-04 seconds.
Warning: Simulation tolerance relaxed to achieve convergence from 4.1221485257818025e-04 to 4.1221485257818123e-04 seconds.
Warning: Simulation tolerance relaxed to achieve convergence from 4.1221485257818220e-04 to 4.1221485257818318e-04 seconds.
Warning: Simulation tolerance relaxed to achieve convergence from 4.1221485257818914e-04 to 4.1221485257819012e-04 seconds.
Warning: Simulation tolerance relaxed to achieve convergence from 4.1221485257819310e-04 to 4.1221485257819407e-04 seconds.
Warning: Simulation tolerance relaxed to achieve convergence from 4.1221485257819505e-04 to 4.1221485257819602e-04 seconds.
Warning: Simulation tolerance relaxed to achieve convergence from 4.1221485257820698e-04 to 4.1221485257820795e-04 seconds.
Warning: Simulation tolerance relaxed to achieve convergence from 4.1221485257821484e-04 to 4.1221485257821581e-04 seconds.
Warning: Simulation tolerance relaxed to achieve convergence from 4.1221485257821977e-04 to 4.1221485257822074e-04 seconds.
Warning: Simulation tolerance relaxed to achieve convergence from 4.1221485257822275e-04 to 4.1221485257822373e-04 seconds.
Warning: Simulation tolerance relaxed to achieve convergence from 4.1221485257822373e-04 to 4.1221485257822470e-04 seconds.
Warning: Simulation tolerance relaxed to achieve convergence from 4.1221485257823169e-04 to 4.1221485257823267e-04 seconds.
Warning: Simulation tolerance relaxed to achieve convergence from 4.1221485257824064e-04 to 4.1221485257824162e-04 seconds.
Warning: Simulation tolerance relaxed to achieve convergence from 4.1221485257824162e-04 to 4.1221485257824259e-04 seconds.
Warning: Simulation tolerance relaxed to achieve convergence from 4.1221485257824552e-04 to 4.1221485257824649e-04 seconds.
Warning: Simulation tolerance relaxed to achieve convergence from 4.1221485257824747e-04 to 4.1221485257824845e-04 seconds.
Warning: Simulation tolerance relaxed to achieve convergence from 4.1221485257826249e-04 to 4.1221485257826346e-04 seconds.
Warning: Simulation tolerance relaxed to achieve convergence from 4.1221485257826547e-04 to 4.1221485257826644e-04 seconds.
Warning: Simulation tolerance relaxed to achieve convergence from 4.1221485257826845e-04 to 4.1221485257826943e-04 seconds.
Warning: Simulation tolerance relaxed to achieve convergence from 4.1221485257827143e-04 to 4.1221485257827241e-04 seconds.
Warning: Simulation tolerance relaxed to achieve convergence from 4.1221485257827441e-04 to 4.1221485257827539e-04 seconds.
Warning: Simulation tolerance relaxed to achieve convergence from 4.1221485257827539e-04 to 4.1221485257827636e-04 seconds.
Warning: Simulation tolerance relaxed to achieve convergence from 4.1221485257827832e-04 to 4.1221485257827929e-04 seconds.
Warning: Simulation tolerance relaxed to achieve convergence from 4.1221485257828130e-04 to 4.1221485257828227e-04 seconds.
Warning: Simulation tolerance relaxed to achieve convergence from 4.1221485257828227e-04 to 4.1221485257828325e-04 seconds.
Warning: Simulation tolerance relaxed to achieve convergence from 4.1221485257828325e-04 to 4.1221485257828422e-04 seconds.
Warning: Simulation tolerance relaxed to achieve convergence from 4.1221485257828422e-04 to 4.1221485257828520e-04 seconds.
Warning: Simulation tolerance relaxed to achieve convergence from 4.1221485257829517e-04 to 4.1221485257829615e-04 seconds.
Warning: Simulation tolerance relaxed to achieve convergence from 4.1221485257831019e-04 to 4.1221485257831117e-04 seconds.
Warning: Simulation tolerance relaxed to achieve convergence from 4.1221485257831718e-04 to 4.1221485257831816e-04 seconds.
Warning: Simulation tolerance relaxed to achieve convergence from 4.1221485257832017e-04 to 4.1221485257832114e-04 seconds.
Warning: Simulation tolerance relaxed to achieve convergence from 4.1221485257832114e-04 to 4.1221485257832212e-04 seconds.
Warning: Simulation tolerance relaxed to achieve convergence from 4.1221485257832412e-04 to 4.1221485257832510e-04 seconds.
Warning: Simulation tolerance relaxed to achieve convergence from 4.1221485257833507e-04 to 4.1221485257833605e-04 seconds.
Warning: Simulation tolerance relaxed to achieve convergence from 4.1221485257833605e-04 to 4.1221485257833703e-04 seconds.
Warning: Simulation tolerance relaxed to achieve convergence from 4.1221485257833703e-04 to 4.1221485257833800e-04 seconds.
Warning: Simulation tolerance relaxed to achieve convergence from 4.1221485257833800e-04 to 4.1221485257833898e-04 seconds.
Warning: Simulation tolerance relaxed to achieve convergence from 4.1221485257833898e-04 to 4.1221485257833995e-04 seconds.
Warning: Simulation tolerance relaxed to achieve convergence from 4.1221485257833995e-04 to 4.1221485257834093e-04 seconds.
Warning: Simulation tolerance relaxed to achieve convergence from 4.1221485257834890e-04 to 4.1221485257834987e-04 seconds.
Warning: Simulation tolerance relaxed to achieve convergence from 4.1221485257834987e-04 to 4.1221485257835085e-04 seconds.
Warning: Simulation tolerance relaxed to achieve convergence from 4.1221485257835085e-04 to 4.1221485257835182e-04 seconds.
Warning: Simulation tolerance relaxed to achieve convergence from 4.1221485257835578e-04 to 4.1221485257835676e-04 seconds.
Warning: Simulation tolerance relaxed to achieve convergence from 4.1221485257835773e-04 to 4.1221485257835871e-04 seconds.
Warning: Simulation tolerance relaxed to achieve convergence from 4.6302775618066618e-04 to 4.6302775618066715e-04 seconds.
Warning: Simulation tolerance relaxed to achieve convergence from 4.6302776767288237e-04 to 4.6302776767288335e-04 seconds.
Warning: Simulation tolerance relaxed to achieve convergence from 4.6302776767288633e-04 to 4.6302776767288731e-04 seconds.
Warning: Simulation tolerance relaxed to achieve convergence from 4.6302776767301432e-04 to 4.6302776767301530e-04 seconds.
Warning: Simulation tolerance relaxed to achieve convergence from 4.6302776767301730e-04 to 4.6302776767301828e-04 seconds.
Warning: Simulation tolerance relaxed to achieve convergence from 4.6302776767376020e-04 to 4.6302776767376117e-04 seconds.
Warning: Simulation tolerance relaxed to achieve convergence from 4.6302776767376215e-04 to 4.6302776767376312e-04 seconds.
Warning: Simulation tolerance relaxed to achieve convergence from 4.6302776767376513e-04 to 4.6302776767376611e-04 seconds.
Warning: Simulation tolerance relaxed to achieve convergence from 4.6302776767784005e-04 to 4.6302776767784102e-04 seconds.
Warning: Simulation tolerance relaxed to achieve convergence from 4.6302776767785198e-04 to 4.6302776767785295e-04 seconds.
Warning: Simulation tolerance relaxed to achieve convergence from 4.6302776767790299e-04 to 4.6302776767790396e-04 seconds.
Warning: Simulation tolerance relaxed to achieve convergence from 9.4032963233152942e-04 to 9.4032963233153040e-04 seconds.
Warning: Simulation tolerance relaxed to achieve convergence from 1.1230545840204807e-03 to 1.1230545840204907e-03 seconds.
Warning: Simulation tolerance relaxed to achieve convergence from 1.1230545840205707e-03 to 1.1230545840205807e-03 seconds.
Warning: Simulation tolerance relaxed to achieve convergence from 1.1230545840207407e-03 to 1.1230545840207507e-03 seconds.
Warning: Simulation tolerance relaxed to achieve convergence from 1.1230545840207906e-03 to 1.1230545840208005e-03 seconds.
Warning: Simulation tolerance relaxed to achieve convergence from 1.1230545840208005e-03 to 1.1230545840208105e-03 seconds.
Warning: Simulation tolerance relaxed to achieve convergence from 1.1230545840209905e-03 to 1.1230545840210005e-03 seconds.
Warning: Simulation tolerance relaxed to achieve convergence from 1.1230545840211605e-03 to 1.1230545840211705e-03 seconds.
Warning: Simulation tolerance relaxed to achieve convergence from 1.1230545840215105e-03 to 1.1230545840215204e-03 seconds.
Warning: Simulation tolerance relaxed to achieve convergence from 1.1230545840216002e-03 to 1.1230545840216102e-03 seconds.
Warning: Simulation tolerance relaxed to achieve convergence from 1.1230545840217503e-03 to 1.1230545840217603e-03 seconds.
Warning: Simulation tolerance relaxed to achieve convergence from 1.1230545840217603e-03 to 1.1230545840217702e-03 seconds.
Warning: Simulation tolerance relaxed to achieve convergence from 1.1230545840218303e-03 to 1.1230545840218403e-03 seconds.
Warning: Simulation tolerance relaxed to achieve convergence from 1.1230545840218702e-03 to 1.1230545840218802e-03 seconds.
Warning: Simulation tolerance relaxed to achieve convergence from 1.1230545840218802e-03 to 1.1230545840218902e-03 seconds.
Warning: Simulation tolerance relaxed to achieve convergence from 1.1230545840219502e-03 to 1.1230545840219602e-03 seconds.
Warning: Simulation tolerance relaxed to achieve convergence from 1.1230545840219602e-03 to 1.1230545840219702e-03 seconds.
Warning: Simulation tolerance relaxed to achieve convergence from 1.1230545840219702e-03 to 1.1230545840219801e-03 seconds.
Warning: Simulation tolerance relaxed to achieve convergence from 1.1230545840220402e-03 to 1.1230545840220502e-03 seconds.
Warning: Simulation tolerance relaxed to achieve convergence from 1.1230545840220701e-03 to 1.1230545840220801e-03 seconds.
Warning: Simulation tolerance relaxed to achieve convergence from 1.1230545840220901e-03 to 1.1230545840221001e-03 seconds.
Warning: Simulation tolerance relaxed to achieve convergence from 1.1230545840223299e-03 to 1.1230545840223399e-03 seconds.
Warning: Simulation tolerance relaxed to achieve convergence from 1.1230545840223898e-03 to 1.1230545840223997e-03 seconds.
Warning: Simulation tolerance relaxed to achieve convergence from 1.1230545840224197e-03 to 1.1230545840224297e-03 seconds.
Warning: Simulation tolerance relaxed to achieve convergence from 1.1230545840226196e-03 to 1.1230545840226296e-03 seconds.
Warning: Simulation tolerance relaxed to achieve convergence from 1.1230545840226495e-03 to 1.1230545840226595e-03 seconds.
Warning: Simulation tolerance relaxed to achieve convergence from 1.1230545840226795e-03 to 1.1230545840226894e-03 seconds.
Warning: Simulation tolerance relaxed to achieve convergence from 1.1230545840226894e-03 to 1.1230545840226994e-03 seconds.
Warning: Simulation tolerance relaxed to achieve convergence from 1.1230545840226994e-03 to 1.1230545840227094e-03 seconds.
Warning: Simulation tolerance relaxed to achieve convergence from 1.1230545840227694e-03 to 1.1230545840227794e-03 seconds.
Warning: Simulation tolerance relaxed to achieve convergence from 1.1230545840227794e-03 to 1.1230545840227894e-03 seconds.
Warning: Simulation tolerance relaxed to achieve convergence from 1.1230545840228794e-03 to 1.1230545840228894e-03 seconds.
Warning: Simulation tolerance relaxed to achieve convergence from 1.1230545840229793e-03 to 1.1230545840229893e-03 seconds.
Warning: Simulation tolerance relaxed to achieve convergence from 1.1230545840230093e-03 to 1.1230545840230192e-03 seconds.
Warning: Simulation tolerance relaxed to achieve convergence from 1.1230545840230292e-03 to 1.1230545840230392e-03 seconds.
Warning: Simulation tolerance relaxed to achieve convergence from 1.1392635250513732e-03 to 1.1392635250513832e-03 seconds.
Warning: Simulation tolerance relaxed to achieve convergence from 1.1392635250514532e-03 to 1.1392635250514632e-03 seconds.
Warning: Simulation tolerance relaxed to achieve convergence from 1.1392635250514732e-03 to 1.1392635250514831e-03 seconds.
Warning: Simulation tolerance relaxed to achieve convergence from 1.1392635250515532e-03 to 1.1392635250515632e-03 seconds.
Warning: Simulation tolerance relaxed to achieve convergence from 1.1392635250519433e-03 to 1.1392635250519533e-03 seconds.
Warning: Simulation tolerance relaxed to achieve convergence from 1.1392635250519533e-03 to 1.1392635250519632e-03 seconds.
Warning: Simulation tolerance relaxed to achieve convergence from 1.1392635250520231e-03 to 1.1392635250520331e-03 seconds.
Warning: Simulation tolerance relaxed to achieve convergence from 1.1392635250521328e-03 to 1.1392635250521428e-03 seconds.
Warning: Simulation tolerance relaxed to achieve convergence from 1.1392635250522328e-03 to 1.1392635250522427e-03 seconds.
Warning: Simulation tolerance relaxed to achieve convergence from 1.1392635250522627e-03 to 1.1392635250522727e-03 seconds.
Warning: Simulation tolerance relaxed to achieve convergence from 1.1392635250522926e-03 to 1.1392635250523026e-03 seconds.
Warning: Simulation tolerance relaxed to achieve convergence from 1.1392635250524726e-03 to 1.1392635250524826e-03 seconds.
Warning: Simulation tolerance relaxed to achieve convergence from 1.1392635250525025e-03 to 1.1392635250525125e-03 seconds.
Warning: Simulation tolerance relaxed to achieve convergence from 1.1392635250525225e-03 to 1.1392635250525324e-03 seconds.
Warning: Simulation tolerance relaxed to achieve convergence from 1.1392635250525925e-03 to 1.1392635250526025e-03 seconds.
Warning: Simulation tolerance relaxed to achieve convergence from 1.1392635250526124e-03 to 1.1392635250526224e-03 seconds.
Warning: Simulation tolerance relaxed to achieve convergence from 1.1392635250526424e-03 to 1.1392635250526523e-03 seconds.
Warning: Simulation tolerance relaxed to achieve convergence from 1.1392635250526523e-03 to 1.1392635250526623e-03 seconds.
Warning: Simulation tolerance relaxed to achieve convergence from 1.1392635250527222e-03 to 1.1392635250527321e-03 seconds.
Warning: Simulation tolerance relaxed to achieve convergence from 1.1392635250527922e-03 to 1.1392635250528022e-03 seconds.
Warning: Simulation tolerance relaxed to achieve convergence from 1.1392635250528022e-03 to 1.1392635250528122e-03 seconds.
Warning: Simulation tolerance relaxed to achieve convergence from 1.1392635250529221e-03 to 1.1392635250529321e-03 seconds.
Warning: Simulation tolerance relaxed to achieve convergence from 1.1392635250529321e-03 to 1.1392635250529420e-03 seconds.
Warning: Simulation tolerance relaxed to achieve convergence from 1.1392635250529420e-03 to 1.1392635250529520e-03 seconds.
Warning: Simulation tolerance relaxed to achieve convergence from 1.1392635250530420e-03 to 1.1392635250530520e-03 seconds.
Warning: Simulation tolerance relaxed to achieve convergence from 1.1392635250530919e-03 to 1.1392635250531019e-03 seconds.
Warning: Simulation tolerance relaxed to achieve convergence from 1.1392635250531019e-03 to 1.1392635250531118e-03 seconds.
Warning: Simulation tolerance relaxed to achieve convergence from 1.1392635250535316e-03 to 1.1392635250535416e-03 seconds.
Warning: Simulation tolerance relaxed to achieve convergence from 1.1392635250536216e-03 to 1.1392635250536316e-03 seconds.
Warning: Simulation tolerance relaxed to achieve convergence from 1.1392635250538617e-03 to 1.1392635250538716e-03 seconds.
Warning: Simulation tolerance relaxed to achieve convergence from 1.1392635250539215e-03 to 1.1392635250539315e-03 seconds.
Warning: Simulation tolerance relaxed to achieve convergence from 1.1392635250540716e-03 to 1.1392635250540815e-03 seconds.
Warning: Simulation tolerance relaxed to achieve convergence from 1.1392635250541015e-03 to 1.1392635250541115e-03 seconds.
Warning: Simulation tolerance relaxed to achieve convergence from 1.1392635250541715e-03 to 1.1392635250541815e-03 seconds.
Warning: Simulation tolerance relaxed to achieve convergence from 1.1392635250541915e-03 to 1.1392635250542015e-03 seconds.
Warning: Simulation tolerance relaxed to achieve convergence from 1.1392635250542015e-03 to 1.1392635250542114e-03 seconds.
Warning: Simulation tolerance relaxed to achieve convergence from 1.1392635250542715e-03 to 1.1392635250542815e-03 seconds.
Warning: Simulation tolerance relaxed to achieve convergence from 1.1392635250549016e-03 to 1.1392635250549116e-03 seconds.
Warning: Simulation tolerance relaxed to achieve convergence from 1.1392635250549814e-03 to 1.1392635250549914e-03 seconds.
Warning: Simulation tolerance relaxed to achieve convergence from 1.1392635250550515e-03 to 1.1392635250550614e-03 seconds.
Warning: Simulation tolerance relaxed to achieve convergence from 1.1392635250550614e-03 to 1.1392635250550714e-03 seconds.
Warning: Simulation tolerance relaxed to achieve convergence from 1.1392635250550714e-03 to 1.1392635250550814e-03 seconds.
Warning: Simulation tolerance relaxed to achieve convergence from 1.1392635250551013e-03 to 1.1392635250551113e-03 seconds.
Warning: Simulation tolerance relaxed to achieve convergence from 1.1392635250551113e-03 to 1.1392635250551213e-03 seconds.
Warning: Simulation tolerance relaxed to achieve convergence from 1.1392635250551213e-03 to 1.1392635250551313e-03 seconds.
Warning: Simulation tolerance relaxed to achieve convergence from 1.1392635250551313e-03 to 1.1392635250551412e-03 seconds.
Warning: Simulation tolerance relaxed to achieve convergence from 1.1392635250551612e-03 to 1.1392635250551712e-03 seconds.
Warning: Simulation tolerance relaxed to achieve convergence from 1.1392635250552111e-03 to 1.1392635250552210e-03 seconds.
Warning: Simulation tolerance relaxed to achieve convergence from 1.1392635250552410e-03 to 1.1392635250552510e-03 seconds.
Warning: Simulation tolerance relaxed to achieve convergence from 1.1392635250552709e-03 to 1.1392635250552809e-03 seconds.
Warning: Simulation tolerance relaxed to achieve convergence from 1.1392635250552809e-03 to 1.1392635250552909e-03 seconds.
Warning: Simulation tolerance relaxed to achieve convergence from 1.1392635250553108e-03 to 1.1392635250553208e-03 seconds.
Warning: Simulation tolerance relaxed to achieve convergence from 1.1392635250553806e-03 to 1.1392635250553906e-03 seconds.
Warning: Simulation tolerance relaxed to achieve convergence from 1.1392635250553906e-03 to 1.1392635250554006e-03 seconds.
Warning: Simulation tolerance relaxed to achieve convergence from 1.1392635250554006e-03 to 1.1392635250554106e-03 seconds.
Warning: Simulation tolerance relaxed to achieve convergence from 1.1392635250554106e-03 to 1.1392635250554205e-03 seconds.
Warning: Simulation tolerance relaxed to achieve convergence from 1.1392635250554205e-03 to 1.1392635250554305e-03 seconds.
Warning: Simulation tolerance relaxed to achieve convergence from 1.1392635250554305e-03 to 1.1392635250554405e-03 seconds.
Warning: Simulation tolerance relaxed to achieve convergence from 1.1392635250554405e-03 to 1.1392635250554505e-03 seconds.
Warning: Simulation tolerance relaxed to achieve convergence from 1.1392635250554505e-03 to 1.1392635250554604e-03 seconds.
Warning: Simulation tolerance relaxed to achieve convergence from 1.1392635250554604e-03 to 1.1392635250554704e-03 seconds.
Warning: Simulation tolerance relaxed to achieve convergence from 1.1392635250555003e-03 to 1.1392635250555103e-03 seconds.
Warning: Simulation tolerance relaxed to achieve convergence from 1.1392635250555303e-03 to 1.1392635250555402e-03 seconds.
Warning: Simulation tolerance relaxed to achieve convergence from 1.1392635250556101e-03 to 1.1392635250556200e-03 seconds.
Warning: Simulation tolerance relaxed to achieve convergence from 1.1392635250556998e-03 to 1.1392635250557098e-03 seconds.
Warning: Simulation tolerance relaxed to achieve convergence from 1.1392635250557397e-03 to 1.1392635250557497e-03 seconds.
Warning: Simulation tolerance relaxed to achieve convergence from 1.1392635250557597e-03 to 1.1392635250557696e-03 seconds.
Warning: Simulation tolerance relaxed to achieve convergence from 1.1392635250558397e-03 to 1.1392635250558497e-03 seconds.
Warning: Simulation tolerance relaxed to achieve convergence from 1.1392635250559297e-03 to 1.1392635250559396e-03 seconds.
Warning: Simulation tolerance relaxed to achieve convergence from 1.1392635250563297e-03 to 1.1392635250563397e-03 seconds.
Warning: Simulation tolerance relaxed to achieve convergence from 1.1392635250563397e-03 to 1.1392635250563497e-03 seconds.
Warning: Simulation tolerance relaxed to achieve convergence from 1.1392635250563497e-03 to 1.1392635250563597e-03 seconds.
Warning: Simulation tolerance relaxed to achieve convergence from 1.1392635250564297e-03 to 1.1392635250564397e-03 seconds.
Warning: Simulation tolerance relaxed to achieve convergence from 1.1392635250564397e-03 to 1.1392635250564497e-03 seconds.
Warning: Simulation tolerance relaxed to achieve convergence from 1.1392635250564497e-03 to 1.1392635250564596e-03 seconds.
Warning: Simulation tolerance relaxed to achieve convergence from 1.1392635250564796e-03 to 1.1392635250564896e-03 seconds.
Warning: Simulation tolerance relaxed to achieve convergence from 1.1392635250565696e-03 to 1.1392635250565795e-03 seconds.
Warning: Simulation tolerance relaxed to achieve convergence from 1.1392635250565795e-03 to 1.1392635250565895e-03 seconds.
Warning: Simulation tolerance relaxed to achieve convergence from 1.1392635250566095e-03 to 1.1392635250566194e-03 seconds.
Warning: Simulation tolerance relaxed to achieve convergence from 1.1392635250566793e-03 to 1.1392635250566893e-03 seconds.
Warning: Simulation tolerance relaxed to achieve convergence from 1.1392635250568293e-03 to 1.1392635250568393e-03 seconds.
Warning: Simulation tolerance relaxed to achieve convergence from 1.1392635250570991e-03 to 1.1392635250571091e-03 seconds.
Warning: Simulation tolerance relaxed to achieve convergence from 1.1392635250571290e-03 to 1.1392635250571390e-03 seconds.
Warning: Simulation tolerance relaxed to achieve convergence from 1.1392635250571490e-03 to 1.1392635250571589e-03 seconds.
Warning: Simulation tolerance relaxed to achieve convergence from 1.1392635250571589e-03 to 1.1392635250571689e-03 seconds.
Warning: Simulation tolerance relaxed to achieve convergence from 1.1392635250571889e-03 to 1.1392635250571988e-03 seconds.
Warning: Simulation tolerance relaxed to achieve convergence from 1.1392635250571988e-03 to 1.1392635250572088e-03 seconds.
Warning: Simulation tolerance relaxed to achieve convergence from 1.1392635250572786e-03 to 1.1392635250572886e-03 seconds.
Warning: Simulation tolerance relaxed to achieve convergence from 1.1392635250573986e-03 to 1.1392635250574085e-03 seconds.
Warning: Simulation tolerance relaxed to achieve convergence from 1.1392635250574385e-03 to 1.1392635250574484e-03 seconds.
Warning: Simulation tolerance relaxed to achieve convergence from 1.1392635250574484e-03 to 1.1392635250574584e-03 seconds.
Warning: Simulation tolerance relaxed to achieve convergence from 1.1392635250575985e-03 to 1.1392635250576085e-03 seconds.
Warning: Simulation tolerance relaxed to achieve convergence from 1.1392635250576484e-03 to 1.1392635250576583e-03 seconds.
Warning: Simulation tolerance relaxed to achieve convergence from 1.1392635250576583e-03 to 1.1392635250576683e-03 seconds.
Warning: Simulation tolerance relaxed to achieve convergence from 1.1392635250577481e-03 to 1.1392635250577581e-03 seconds.
Warning: Simulation tolerance relaxed to achieve convergence from 1.1392635250577780e-03 to 1.1392635250577880e-03 seconds.
Warning: Simulation tolerance relaxed to achieve convergence from 1.1392635250578079e-03 to 1.1392635250578179e-03 seconds.
Warning: Simulation tolerance relaxed to achieve convergence from 1.1392635250578179e-03 to 1.1392635250578279e-03 seconds.
Warning: Simulation tolerance relaxed to achieve convergence from 1.1392635250578379e-03 to 1.1392635250578478e-03 seconds.
Warning: Simulation tolerance relaxed to achieve convergence from 1.1392635250578478e-03 to 1.1392635250578578e-03 seconds.
Warning: Simulation tolerance relaxed to achieve convergence from 1.1392635250578578e-03 to 1.1392635250578678e-03 seconds.
Warning: Simulation tolerance relaxed to achieve convergence from 1.1392635250578678e-03 to 1.1392635250578778e-03 seconds.
Warning: Simulation tolerance relaxed to achieve convergence from 1.1392635250578778e-03 to 1.1392635250578877e-03 seconds.
Warning: Simulation tolerance relaxed to achieve convergence from 1.1392635250579777e-03 to 1.1392635250579877e-03 seconds.
Warning: Simulation tolerance relaxed to achieve convergence from 1.1392635250579877e-03 to 1.1392635250579977e-03 seconds.
Warning: Simulation tolerance relaxed to achieve convergence from 1.1392635250580276e-03 to 1.1392635250580376e-03 seconds.
Warning: Simulation tolerance relaxed to achieve convergence from 1.1392635250580476e-03 to 1.1392635250580575e-03 seconds.
Warning: Simulation tolerance relaxed to achieve convergence from 1.1392635250580575e-03 to 1.1392635250580575e-03 seconds.

Simulation stopped by user.
Total elapsed time: 14.131 seconds.

Files loaded:
C:\Users\Gonzalo\Documents\GitHub\Circuitos II\1CTDC\CP5_buck_pwm\Buck y PWM\intento6_error.net
C:\Users\Gonzalo\AppData\Local\LTspice\lib\cmp\standard.dio
C:\Users\Gonzalo\AppData\Local\LTspice\lib\cmp\standard.mos
C:\Users\Gonzalo\Documents\GitHub\Circuitos II\1CTDC\CP5_buck_pwm\Buck y PWM\LM393.5_1
C:\Users\Gonzalo\Documents\GitHub\Circuitos II\1CTDC\CP5_buck_pwm\Buck y PWM\LM324.mod
C:\Users\Gonzalo\AppData\Local\LTspice\lib\sub\ADI.lib
C:\Users\Gonzalo\Documents\GitHub\Circuitos II\1CTDC\CP5_buck_pwm\Buck y PWM\IR2104.lib
C:\Users\Gonzalo\Documents\GitHub\Circuitos II\1CTDC\CP5_buck_pwm\Buck y PWM\TL431.mod

