LTspice 24.1.7 for Windows
Circuit: C:\Users\Gonzalo\Documents\GitHub\Circuitos II\1CTDC\CP5_buck_pwm\Buck y PWM\intento6_error.net
Start Time: Tue Jun 17 15:24:58 2025
Options: gmin=1e-11  abstol=1e-10  reltol=0.006  cshunt=1e-15
solver = Normal
Maximum thread count: 12
tnom = 27
temp = 27
method = modified trap
gmin = 1e-11
abstol = 1e-10
reltol = 0.006
Instance "u1:x_gd_template:x_ho_stage:M_HO_PMOS": Length shorter than recommended for a level 1 MOSFET.
Instance "u1:x_gd_template:x_ho_stage:M_HO_NMOS": Length shorter than recommended for a level 1 MOSFET.
Instance "u1:x_gd_template:x_lo_stage:M_LO_PMOS": Length shorter than recommended for a level 1 MOSFET.
Instance "u1:x_gd_template:x_lo_stage:M_LO_NMOS": Length shorter than recommended for a level 1 MOSFET.
Direct Newton iteration for .op point succeeded.
Warning: Simulation tolerance relaxed to achieve convergence from 3.2284655792481575e-03 to 3.2284655792481675e-03 seconds.
Warning: Simulation tolerance relaxed to achieve convergence from 3.2284655792482074e-03 to 3.2284655792482173e-03 seconds.
Warning: Simulation tolerance relaxed to achieve convergence from 3.2284655792482273e-03 to 3.2284655792482373e-03 seconds.
Warning: Simulation tolerance relaxed to achieve convergence from 3.2284655792482572e-03 to 3.2284655792482672e-03 seconds.
Warning: Simulation tolerance relaxed to achieve convergence from 3.2284655792484168e-03 to 3.2284655792484268e-03 seconds.
Warning: Simulation tolerance relaxed to achieve convergence from 3.2284655792485365e-03 to 3.2284655792485465e-03 seconds.
Warning: Simulation tolerance relaxed to achieve convergence from 3.2284655792485565e-03 to 3.2284655792485665e-03 seconds.
Warning: Simulation tolerance relaxed to achieve convergence from 3.2284655792486762e-03 to 3.2284655792486862e-03 seconds.
Warning: Simulation tolerance relaxed to achieve convergence from 3.2284655792486862e-03 to 3.2284655792486961e-03 seconds.
Warning: Simulation tolerance relaxed to achieve convergence from 3.2284655792487659e-03 to 3.2284655792487759e-03 seconds.
Warning: Simulation tolerance relaxed to achieve convergence from 3.2284655792487959e-03 to 3.2284655792488058e-03 seconds.
Warning: Simulation tolerance relaxed to achieve convergence from 3.2284655792488058e-03 to 3.2284655792488158e-03 seconds.
Warning: Simulation tolerance relaxed to achieve convergence from 3.2284655792488457e-03 to 3.2284655792488557e-03 seconds.
Warning: Simulation tolerance relaxed to achieve convergence from 3.2284655792490153e-03 to 3.2284655792490253e-03 seconds.
Warning: Simulation tolerance relaxed to achieve convergence from 3.2284655792491250e-03 to 3.2284655792491350e-03 seconds.
Warning: Simulation tolerance relaxed to achieve convergence from 3.2284655792493245e-03 to 3.2284655792493345e-03 seconds.
Warning: Simulation tolerance relaxed to achieve convergence from 3.2284655792494143e-03 to 3.2284655792494243e-03 seconds.
Warning: Simulation tolerance relaxed to achieve convergence from 3.2284655792496836e-03 to 3.2284655792496936e-03 seconds.
Warning: Simulation tolerance relaxed to achieve convergence from 3.2284655792498432e-03 to 3.2284655792498532e-03 seconds.
Warning: Simulation tolerance relaxed to achieve convergence from 3.2284655792499629e-03 to 3.2284655792499729e-03 seconds.
Warning: Simulation tolerance relaxed to achieve convergence from 3.2284655792499729e-03 to 3.2284655792499829e-03 seconds.
Warning: Simulation tolerance relaxed to achieve convergence from 3.2284655792500028e-03 to 3.2284655792500128e-03 seconds.
Warning: Simulation tolerance relaxed to achieve convergence from 3.2284655792500427e-03 to 3.2284655792500527e-03 seconds.
Warning: Simulation tolerance relaxed to achieve convergence from 3.2284655792501425e-03 to 3.2284655792501524e-03 seconds.
Warning: Simulation tolerance relaxed to achieve convergence from 3.2284655792506217e-03 to 3.2284655792506316e-03 seconds.
Warning: Simulation tolerance relaxed to achieve convergence from 3.2284655792506316e-03 to 3.2284655792506416e-03 seconds.
Warning: Simulation tolerance relaxed to achieve convergence from 3.2284655792506815e-03 to 3.2284655792506915e-03 seconds.
Warning: Simulation tolerance relaxed to achieve convergence from 3.2284655792508511e-03 to 3.2284655792508611e-03 seconds.
Warning: Simulation tolerance relaxed to achieve convergence from 3.2284655792508611e-03 to 3.2284655792508710e-03 seconds.
Warning: Simulation tolerance relaxed to achieve convergence from 3.2284655792508910e-03 to 3.2284655792509010e-03 seconds.
Warning: Simulation tolerance relaxed to achieve convergence from 3.2284655792509608e-03 to 3.2284655792509708e-03 seconds.
Warning: Simulation tolerance relaxed to achieve convergence from 3.2284655792510306e-03 to 3.2284655792510406e-03 seconds.
Warning: Simulation tolerance relaxed to achieve convergence from 3.2284655792510805e-03 to 3.2284655792510905e-03 seconds.
Warning: Simulation tolerance relaxed to achieve convergence from 3.2284655792510905e-03 to 3.2284655792511005e-03 seconds.
Warning: Simulation tolerance relaxed to achieve convergence from 3.2284655792511005e-03 to 3.2284655792511104e-03 seconds.
Warning: Simulation tolerance relaxed to achieve convergence from 3.2284655792515198e-03 to 3.2284655792515298e-03 seconds.
Warning: Simulation tolerance relaxed to achieve convergence from 3.2284655792517792e-03 to 3.2284655792517891e-03 seconds.
Warning: Simulation tolerance relaxed to achieve convergence from 3.2284655792522684e-03 to 3.2284655792522783e-03 seconds.
Warning: Simulation tolerance relaxed to achieve convergence from 3.2284655792530264e-03 to 3.2284655792530364e-03 seconds.
Warning: Simulation tolerance relaxed to achieve convergence from 3.2284655792532259e-03 to 3.2284655792532359e-03 seconds.
Warning: Simulation tolerance relaxed to achieve convergence from 3.2284655792532359e-03 to 3.2284655792532459e-03 seconds.
Warning: Simulation tolerance relaxed to achieve convergence from 3.2284655792532658e-03 to 3.2284655792532758e-03 seconds.
Warning: Simulation tolerance relaxed to achieve convergence from 3.2284655792533257e-03 to 3.2284655792533356e-03 seconds.
Warning: Simulation tolerance relaxed to achieve convergence from 3.2284655792537247e-03 to 3.2284655792537346e-03 seconds.
Warning: Simulation tolerance relaxed to achieve convergence from 3.2284655792538144e-03 to 3.2284655792538244e-03 seconds.
Warning: Simulation tolerance relaxed to achieve convergence from 3.2284655792538344e-03 to 3.2284655792538444e-03 seconds.
Warning: Simulation tolerance relaxed to achieve convergence from 3.2284655792538643e-03 to 3.2284655792538743e-03 seconds.
Warning: Simulation tolerance relaxed to achieve convergence from 3.2284655792538942e-03 to 3.2284655792539042e-03 seconds.
Warning: Simulation tolerance relaxed to achieve convergence from 3.2284655792539042e-03 to 3.2284655792539142e-03 seconds.
Warning: Simulation tolerance relaxed to achieve convergence from 3.2284655792539142e-03 to 3.2284655792539241e-03 seconds.
Warning: Simulation tolerance relaxed to achieve convergence from 3.2690379317501868e-03 to 3.2690379317501968e-03 seconds.
Warning: Simulation tolerance relaxed to achieve convergence from 3.2690379317502067e-03 to 3.2690379317502167e-03 seconds.
Warning: Simulation tolerance relaxed to achieve convergence from 3.2690379317502367e-03 to 3.2690379317502466e-03 seconds.
Warning: Simulation tolerance relaxed to achieve convergence from 3.2690379317502466e-03 to 3.2690379317502566e-03 seconds.
Warning: Simulation tolerance relaxed to achieve convergence from 5.4912347897449086e-03 to 5.4912347897449190e-03 seconds.
Warning: Simulation tolerance relaxed to achieve convergence from 5.4912347897449788e-03 to 5.4912347897449892e-03 seconds.
Warning: Simulation tolerance relaxed to achieve convergence from 5.4912347897449997e-03 to 5.4912347897450101e-03 seconds.
Warning: Simulation tolerance relaxed to achieve convergence from 5.4912347897450404e-03 to 5.4912347897450508e-03 seconds.
Warning: Simulation tolerance relaxed to achieve convergence from 5.4912347897450812e-03 to 5.4912347897450916e-03 seconds.
Warning: Simulation tolerance relaxed to achieve convergence from 5.4912347897450916e-03 to 5.4912347897451020e-03 seconds.
Warning: Simulation tolerance relaxed to achieve convergence from 5.4912347897451428e-03 to 5.4912347897451532e-03 seconds.
Warning: Simulation tolerance relaxed to achieve convergence from 5.4912347897452234e-03 to 5.4912347897452338e-03 seconds.
Warning: Simulation tolerance relaxed to achieve convergence from 5.4912347897453735e-03 to 5.4912347897453839e-03 seconds.
Warning: Simulation tolerance relaxed to achieve convergence from 5.4912347897453839e-03 to 5.4912347897453943e-03 seconds.
Warning: Simulation tolerance relaxed to achieve convergence from 5.4912347897453943e-03 to 5.4912347897454047e-03 seconds.
Warning: Simulation tolerance relaxed to achieve convergence from 5.4912347897454255e-03 to 5.4912347897454359e-03 seconds.
Warning: Simulation tolerance relaxed to achieve convergence from 5.4912347897454862e-03 to 5.4912347897454966e-03 seconds.
Warning: Simulation tolerance relaxed to achieve convergence from 5.4912347897455166e-03 to 5.4912347897455270e-03 seconds.
Warning: Simulation tolerance relaxed to achieve convergence from 5.4912347897456684e-03 to 5.4912347897456788e-03 seconds.
Warning: Simulation tolerance relaxed to achieve convergence from 5.4912347897456892e-03 to 5.4912347897456996e-03 seconds.
Warning: Simulation tolerance relaxed to achieve convergence from 5.4912347897458393e-03 to 5.4912347897458497e-03 seconds.
Warning: Simulation tolerance relaxed to achieve convergence from 5.4912347897487371e-03 to 5.4912347897487475e-03 seconds.
Warning: Simulation tolerance relaxed to achieve convergence from 5.4912347897487579e-03 to 5.4912347897487683e-03 seconds.
Warning: Simulation tolerance relaxed to achieve convergence from 5.4912347897487883e-03 to 5.4912347897487987e-03 seconds.
Warning: Simulation tolerance relaxed to achieve convergence from 5.4912347897488291e-03 to 5.4912347897488395e-03 seconds.
Warning: Simulation tolerance relaxed to achieve convergence from 5.4912347897488395e-03 to 5.4912347897488499e-03 seconds.
Warning: Simulation tolerance relaxed to achieve convergence from 5.4912347897488698e-03 to 5.4912347897488802e-03 seconds.
Warning: Simulation tolerance relaxed to achieve convergence from 5.4912347897489409e-03 to 5.4912347897489514e-03 seconds.
Warning: Simulation tolerance relaxed to achieve convergence from 5.4912347897489618e-03 to 5.4912347897489722e-03 seconds.
Warning: Simulation tolerance relaxed to achieve convergence from 5.4912347897490433e-03 to 5.4912347897490537e-03 seconds.
Warning: Simulation tolerance relaxed to achieve convergence from 5.4912347897490945e-03 to 5.4912347897491049e-03 seconds.
Warning: Simulation tolerance relaxed to achieve convergence from 5.4912347897491049e-03 to 5.4912347897491153e-03 seconds.
Warning: Simulation tolerance relaxed to achieve convergence from 5.4912347897491361e-03 to 5.4912347897491465e-03 seconds.
Warning: Simulation tolerance relaxed to achieve convergence from 5.4912347897491465e-03 to 5.4912347897491569e-03 seconds.
Warning: Simulation tolerance relaxed to achieve convergence from 5.4912347897491569e-03 to 5.4912347897491673e-03 seconds.
Warning: Simulation tolerance relaxed to achieve convergence from 5.4912347897491873e-03 to 5.4912347897491977e-03 seconds.
Warning: Simulation tolerance relaxed to achieve convergence from 5.4912347897492584e-03 to 5.4912347897492688e-03 seconds.
Warning: Simulation tolerance relaxed to achieve convergence from 5.4912347897511978e-03 to 5.4912347897512082e-03 seconds.
Warning: Simulation tolerance relaxed to achieve convergence from 5.4912347897512490e-03 to 5.4912347897512594e-03 seconds.
Warning: Simulation tolerance relaxed to achieve convergence from 5.4912347897516714e-03 to 5.4912347897516818e-03 seconds.
Warning: Simulation tolerance relaxed to achieve convergence from 5.4912347897517122e-03 to 5.4912347897517226e-03 seconds.
Warning: Simulation tolerance relaxed to achieve convergence from 5.4912347897517226e-03 to 5.4912347897517330e-03 seconds.
Warning: Simulation tolerance relaxed to achieve convergence from 5.4912347897518440e-03 to 5.4912347897518544e-03 seconds.
Warning: Simulation tolerance relaxed to achieve convergence from 5.4912347897518544e-03 to 5.4912347897518648e-03 seconds.
Warning: Simulation tolerance relaxed to achieve convergence from 5.4912347897522673e-03 to 5.4912347897522777e-03 seconds.
Warning: Simulation tolerance relaxed to achieve convergence from 5.4912347897526272e-03 to 5.4912347897526376e-03 seconds.
Warning: Simulation tolerance relaxed to achieve convergence from 5.4912347897526680e-03 to 5.4912347897526784e-03 seconds.
Warning: Simulation tolerance relaxed to achieve convergence from 5.4912347897535683e-03 to 5.4912347897535787e-03 seconds.
Warning: Simulation tolerance relaxed to achieve convergence from 5.4912347897538199e-03 to 5.4912347897538303e-03 seconds.
Warning: Simulation tolerance relaxed to achieve convergence from 5.4912347897538303e-03 to 5.4912347897538407e-03 seconds.
Warning: Simulation tolerance relaxed to achieve convergence from 5.4912347897538710e-03 to 5.4912347897538814e-03 seconds.
Warning: Simulation tolerance relaxed to achieve convergence from 5.4912347897539014e-03 to 5.4912347897539118e-03 seconds.
Warning: Simulation tolerance relaxed to achieve convergence from 5.4912347897540922e-03 to 5.4912347897541026e-03 seconds.
Warning: Simulation tolerance relaxed to achieve convergence from 5.4912347897541234e-03 to 5.4912347897541338e-03 seconds.
Warning: Simulation tolerance relaxed to achieve convergence from 8.2851916233931192e-03 to 8.2851916233931296e-03 seconds.
Warning: Simulation tolerance relaxed to achieve convergence from 8.2851916233931296e-03 to 8.2851916233931400e-03 seconds.
Warning: Simulation tolerance relaxed to achieve convergence from 8.2851916233932007e-03 to 8.2851916233932111e-03 seconds.
Warning: Simulation tolerance relaxed to achieve convergence from 8.2851916233932111e-03 to 8.2851916233932215e-03 seconds.
Warning: Simulation tolerance relaxed to achieve convergence from 8.2851916233936621e-03 to 8.2851916233936725e-03 seconds.
Warning: Simulation tolerance relaxed to achieve convergence from 8.2851916233938651e-03 to 8.2851916233938755e-03 seconds.
Warning: Simulation tolerance relaxed to achieve convergence from 8.2851916233938963e-03 to 8.2851916233939067e-03 seconds.
Warning: Simulation tolerance relaxed to achieve convergence from 8.2851916233939588e-03 to 8.2851916233939692e-03 seconds.
Warning: Simulation tolerance relaxed to achieve convergence from 8.2851916233943404e-03 to 8.2851916233943508e-03 seconds.
Warning: Simulation tolerance relaxed to achieve convergence from 8.2851916233943716e-03 to 8.2851916233943820e-03 seconds.

Simulation stopped by user.
Total elapsed time: 47.243 seconds.

Files loaded:
C:\Users\Gonzalo\Documents\GitHub\Circuitos II\1CTDC\CP5_buck_pwm\Buck y PWM\intento6_error.net
C:\Users\Gonzalo\AppData\Local\LTspice\lib\cmp\standard.dio
C:\Users\Gonzalo\AppData\Local\LTspice\lib\cmp\standard.mos
C:\Users\Gonzalo\Documents\GitHub\Circuitos II\1CTDC\CP5_buck_pwm\Buck y PWM\LM393.5_1
C:\Users\Gonzalo\Documents\GitHub\Circuitos II\1CTDC\CP5_buck_pwm\Buck y PWM\LM324.mod
C:\Users\Gonzalo\AppData\Local\LTspice\lib\sub\ADI.lib
C:\Users\Gonzalo\Documents\GitHub\Circuitos II\1CTDC\CP5_buck_pwm\Buck y PWM\IR2104.lib

