LTspice 24.1.7 for Windows
Circuit: C:\Users\Gonzalo\Documents\GitHub\Circuitos II\1CTDC\CP4_Buck\PWM\pwm_triangular.net
Start Time: Wed May 28 22:03:43 2025
solver = Normal
Maximum thread count: 12
tnom = 27
temp = 27
method = modified trap
Direct Newton iteration for .op point succeeded.
Total elapsed time: 0.302 seconds.

Files loaded:
C:\Users\Gonzalo\Documents\GitHub\Circuitos II\1CTDC\CP4_Buck\PWM\pwm_triangular.net
C:\Users\Gonzalo\Documents\GitHub\Circuitos II\1CTDC\CP4_Buck\PWM\LM393.5_1
C:\Users\Gonzalo\Documents\GitHub\Circuitos II\1CTDC\CP4_Buck\PWM\LM324.mod

