LTspice 24.1.7 for Windows
Circuit: C:\Users\Gonzalo\Documents\GitHub\Circuitos II\1CTDC\CP4_Buck\IRFZ44N\modddd.net
Start Time: Sun May 25 17:44:03 2025
solver = Normal
Maximum thread count: 12
tnom = 27
temp = 27
method = modified trap
Direct Newton iteration for .op point succeeded.
Total elapsed time: 3.434 seconds.

Files loaded:
C:\Users\Gonzalo\Documents\GitHub\Circuitos II\1CTDC\CP4_Buck\IRFZ44N\modddd.net
C:\Users\Gonzalo\AppData\Local\LTspice\lib\cmp\standard.mos
C:\Users\Gonzalo\Documents\GitHub\Circuitos II\1CTDC\CP4_Buck\IRFZ44N\IRFZ44N.sub

