LTspice 24.1.7 for Windows
Circuit: C:\Users\Gonzalo\Documents\GitHub\Circuitos II\1CTDC\CP5_buck_pwm\Buck y PWM\Promediado\promediado-20250614T142845Z-1-001\promediado\boost_average_CL_noCompensado.net
Start Time: Sun Jun 29 19:18:16 2025
C:\Users\Gonzalo\Documents\GitHub\Circuitos II\1CTDC\CP5_buck_pwm\Buck y PWM\Promediado\promediado-20250614T142845Z-1-001\promediado\boost_average_CL_noCompensado.net(28): No such instance.
.dc Vduty 0.2 0.9 0.01
    ^^^^^
